Network_08R-373/scenario_245/case.raw
0,100.0,33,0,1,60.0
GRID OPTIMIZATION COMPETITION
INPUT DATA FILES ARE RAW ROP INL CON
1,'A1',230.0,1,1,1,1,1.0242,18.928,1.05,0.95,1.1,0.9
2,'A2',1.0,1,1,1,1,1.03693,29.4205,1.06544,0.95,1.1,0.9
3,'A3',115.0,1,1,1,1,1.02806,31.185,1.05,0.95,1.1,0.9
4,'A4',115.0,1,1,1,1,1.01562,28.2365,1.05,0.95,1.1,0.9
5,'A5',115.0,1,1,1,1,1.02057,-4.8074,1.05,0.95,1.1,0.9
6,'A6',230.0,1,1,1,1,1.0122,1.7832,1.05,0.95,1.1,0.9
7,'A7',115.0,1,1,1,1,1.03146,33.6013,1.05,0.95,1.1,0.9
8,'A8',115.0,1,1,1,1,1.02392,13.2623,1.05,0.95,1.1,0.9
9,'A9',115.0,2,1,1,1,1.0,4.266,1.05,0.95,1.1,0.9
10,'A10',115.0,1,1,1,1,1.02257,17.5498,1.05,0.95,1.1,0.9
11,'A11',115.0,1,1,1,1,1.02641,-0.4544,1.05,0.95,1.1,0.9
12,'A12',230.0,1,1,1,1,1.01392,5.6261,1.05,0.95,1.1,0.9
13,'A13',230.0,1,1,1,1,1.01583,27.9233,1.05,0.95,1.1,0.9
14,'A14',345.0,1,1,1,1,1.03693,29.4205,1.06544,0.95,1.1,0.9
15,'A15',115.0,1,1,1,1,1.01557,28.2372,1.05,0.95,1.1,0.9
16,'A16',230.0,1,1,1,1,1.0043,2.0008,1.05,0.95,1.1,0.9
17,'A17',230.0,1,1,1,1,1.0108,10.6666,1.05,0.95,1.1,0.9
18,'A18',230.0,1,1,1,1,1.01075,6.248,1.05,0.95,1.1,0.9
19,'A19',500.0,1,1,1,1,1.04973,29.3947,1.07859,0.95,1.1,0.9
20,'A20',1.0,1,1,1,1,1.03693,29.4205,1.06544,0.95,1.1,0.9
21,'A21',22.8,2,1,1,1,1.01344,32.0721,1.05,0.95,1.1,0.9
22,'A22',230.0,1,1,1,1,1.01441,4.6079,1.05,0.95,1.1,0.9
23,'A23',345.0,2,1,1,1,1.02396,0.3846,1.05,0.95,1.1,0.9
24,'A24',138.0,1,1,1,1,1.02239,31.2118,1.05,0.95,1.1,0.9
25,'A25',21.0,2,1,1,1,1.0,34.7277,1.05,0.95,1.1,0.9
26,'A26',230.0,1,1,1,1,1.02168,-3.8377,1.05,0.95,1.1,0.9
27,'A27',115.0,2,1,1,1,1.0361,0.5018,1.05,0.95,1.1,0.9
28,'A28',115.0,1,1,1,1,1.04023,30.9231,1.06652,0.95,1.1,0.9
29,'A29',115.0,1,1,1,1,1.02258,17.5393,1.05,0.95,1.1,0.9
30,'A30',161.0,1,1,1,1,0.99606,-2.0326,1.05,0.95,1.1,0.9
31,'A31',230.0,1,1,1,1,1.02506,19.3086,1.05,0.95,1.1,0.9
32,'A32',161.0,1,1,1,1,1.01256,-4.4585,1.05,0.95,1.1,0.9
33,'A33',115.0,1,1,1,1,1.0275,31.1386,1.05,0.95,1.1,0.9
34,'A34',115.0,1,1,1,1,1.02368,16.0916,1.05,0.95,1.1,0.9
35,'A35',230.0,1,1,1,1,1.00999,4.3915,1.05,0.95,1.1,0.9
36,'A36',138.0,1,1,1,1,1.02457,31.1869,1.05,0.95,1.1,0.9
37,'A37',230.0,1,1,1,1,1.03169,32.9792,1.05,0.95,1.1,0.9
38,'A38',230.0,1,1,1,1,1.0234,32.006,1.05,0.95,1.1,0.9
39,'A39',230.0,1,1,1,1,1.04084,29.4029,1.06945,0.95,1.1,0.9
40,'A40',230.0,1,1,1,1,1.00894,31.0081,1.05,0.95,1.1,0.9
41,'A41',161.0,1,1,1,1,1.02074,7.6325,1.05,0.95,1.1,0.9
42,'A42',230.0,2,1,1,1,1.0108,3.4919,1.05,0.95,1.1,0.9
43,'A43',230.0,1,1,1,1,1.02539,19.2576,1.05,0.95,1.1,0.9
44,'A44',115.0,1,1,1,1,1.03145,33.6015,1.05,0.95,1.1,0.9
45,'A45',230.0,1,1,1,1,1.02029,-2.4097,1.05,0.95,1.1,0.9
46,'A46',1.0,2,1,1,1,1.0132,2.2838,1.05,0.95,1.1,0.9
47,'A47',115.0,1,1,1,1,1.02435,-3.4079,1.05,0.95,1.1,0.9
48,'A48',230.0,1,1,1,1,1.01829,0.5054,1.05,0.95,1.1,0.9
49,'A49',115.0,1,1,1,1,1.028,-0.3143,1.05,0.95,1.1,0.9
50,'A50',230.0,1,1,1,1,1.01856,3.8383,1.05,0.95,1.1,0.9
51,'A51',1.0,2,1,1,1,1.0218,-0.1974,1.05,0.95,1.1,0.9
52,'A52',230.0,1,1,1,1,1.01042,7.1937,1.05,0.95,1.1,0.9
53,'A53',500.0,1,1,1,1,1.03693,29.4205,1.06544,0.95,1.1,0.9
54,'A54',230.0,1,1,1,1,1.01656,-0.0299,1.05,0.95,1.1,0.9
55,'B55',25.0,2,1,2,1,1.03469,0.5599,1.05,0.95,1.1,0.9
56,'B56',115.0,1,1,2,1,1.04015,0.8322,1.05,0.95,1.1,0.9
57,'B57',12.0,1,1,2,1,1.02556,-0.6439,1.05,0.95,1.1,0.9
58,'B58',115.0,1,1,2,1,1.04001,0.7802,1.05,0.95,1.1,0.9
59,'B59',115.0,1,1,2,1,1.03572,-0.6748,1.05,0.95,1.1,0.9
60,'B60',25.0,2,1,2,1,1.04,1.907,1.05,0.95,1.1,0.9
61,'B61',22.0,1,1,2,1,1.03515,-0.387,1.05,0.95,1.1,0.9
62,'B62',115.0,1,1,2,1,1.0358,-0.6437,1.05,0.95,1.1,0.9
63,'B63',115.0,1,1,2,1,1.04061,1.1761,1.05,0.95,1.1,0.9
64,'B64',115.0,1,1,2,1,1.03581,-0.6439,1.05,0.95,1.1,0.9
65,'B65',25.0,1,1,2,1,1.04001,0.7802,1.05,0.95,1.1,0.9
66,'B66',115.0,1,1,2,1,1.03481,-0.1886,1.05,0.95,1.1,0.9
67,'B67',115.0,1,1,2,1,1.03883,0.5599,1.05,0.95,1.1,0.9
68,'B68',12.0,1,1,2,1,1.02556,-0.6439,1.05,0.95,1.1,0.9
69,'B69',115.0,1,1,2,1,1.03561,-0.4144,1.05,0.95,1.1,0.9
70,'B70',34.5,2,1,2,1,1.04,1.5615,1.05,0.95,1.1,0.9
71,'C71',1.0,1,1,3,1,1.00762,8.4224,1.05,0.95,1.1,0.9
72,'C72',345.0,1,1,3,1,1.0186,6.7763,1.05,0.95,1.1,0.9
73,'C73',765.0,2,1,3,1,1.0,8.7729,1.05,0.95,1.1,0.9
74,'C74',138.0,1,1,3,1,1.00406,5.3209,1.05,0.95,1.1,0.9
75,'C75',345.0,3,1,3,1,1.04,35.2575,1.05,0.95,1.1,0.9
76,'C76',345.0,1,1,3,1,1.01589,17.2978,1.05,0.95,1.1,0.9
77,'C77',138.0,1,1,3,1,1.01418,9.6289,1.05,0.95,1.1,0.9
78,'C78',138.0,2,1,3,1,1.0085,9.5655,1.05,0.95,1.1,0.9
79,'C79',138.0,1,1,3,1,0.97436,-5.1397,1.05,0.95,1.1,0.9
80,'C80',18.0,1,1,3,1,1.02636,9.8716,1.05,0.95,1.1,0.9
81,'C81',138.0,1,1,3,1,1.00623,4.7769,1.05,0.95,1.1,0.9
82,'C82',13.8,1,1,3,1,1.0245,18.0736,1.05,0.95,1.1,0.9
83,'C83',345.0,1,1,3,1,1.02636,9.8716,1.05,0.95,1.1,0.9
84,'C84',345.0,1,1,3,1,1.0086,7.3121,1.05,0.95,1.1,0.9
85,'C85',138.0,1,1,3,1,1.013,6.7939,1.05,0.95,1.1,0.9
86,'C86',138.0,1,1,3,1,1.00179,4.7987,1.05,0.95,1.1,0.9
87,'C87',345.0,1,1,3,1,1.03167,30.0268,1.05,0.95,1.1,0.9
88,'C88',345.0,1,1,3,1,1.01715,18.5919,1.05,0.95,1.1,0.9
89,'C89',345.0,1,1,3,1,1.01753,16.1495,1.05,0.95,1.1,0.9
90,'C90',138.0,1,1,3,1,1.00421,5.7978,1.05,0.95,1.1,0.9
91,'C91',138.0,1,1,3,1,1.00711,5.4331,1.05,0.95,1.1,0.9
92,'C92',138.0,1,1,3,1,1.00276,5.2134,1.05,0.95,1.1,0.9
93,'C93',345.0,1,1,3,1,1.0175,4.9498,1.05,0.95,1.1,0.9
94,'C94',138.0,1,1,3,1,1.00743,5.5562,1.05,0.95,1.1,0.9
95,'C95',345.0,1,1,3,1,1.01591,8.4773,1.05,0.95,1.1,0.9
96,'C96',138.0,2,1,3,1,1.0133,15.0759,1.05,0.95,1.1,0.9
97,'C97',138.0,1,1,3,1,1.01814,6.6212,1.05,0.95,1.1,0.9
98,'C98',138.0,1,1,3,1,1.00847,10.0717,1.05,0.95,1.1,0.9
99,'C99',138.0,1,1,3,1,1.00906,13.2352,1.05,0.95,1.1,0.9
100,'C100',1.0,1,1,3,1,1.00793,8.4144,1.05,0.95,1.1,0.9
101,'C101',345.0,1,1,3,1,1.02133,18.0893,1.05,0.95,1.1,0.9
102,'C102',138.0,1,1,3,1,0.99548,-10.204,1.05,0.95,1.1,0.9
103,'C103',138.0,1,1,3,1,1.00611,5.04,1.05,0.95,1.1,0.9
104,'C104',345.0,1,1,3,1,1.03241,10.1913,1.05,0.95,1.1,0.9
105,'C105',345.0,1,1,3,1,1.0245,18.0736,1.05,0.95,1.1,0.9
106,'C106',13.8,1,1,3,1,1.0245,18.0736,1.05,0.95,1.1,0.9
107,'C107',138.0,1,1,3,1,1.00859,13.7118,1.05,0.95,1.1,0.9
108,'C108',345.0,1,1,3,1,1.0197,9.5283,1.05,0.95,1.1,0.9
109,'C109',345.0,1,1,3,1,1.00653,7.4387,1.05,0.95,1.1,0.9
110,'C110',138.0,1,1,3,1,1.00273,5.2327,1.05,0.95,1.1,0.9
111,'C111',138.0,1,1,3,1,0.977,-5.8751,1.05,0.95,1.1,0.9
112,'C112',138.0,2,1,3,1,0.96525,6.0592,1.05,0.95,1.1,0.9
113,'C113',345.0,1,1,3,1,1.01679,0.8995,1.05,0.95,1.1,0.9
114,'C114',138.0,1,1,3,1,1.01368,7.286,1.05,0.95,1.1,0.9
115,'C115',138.0,1,1,3,1,1.00069,4.7648,1.05,0.95,1.1,0.9
116,'C116',138.0,2,1,3,1,0.99584,-12.4354,1.05,0.95,1.1,0.9
117,'C117',13.8,1,1,3,1,0.99764,3.9609,1.05,0.95,1.1,0.9
118,'C118',345.0,1,1,3,1,1.00521,8.0693,1.05,0.95,1.1,0.9
119,'C119',24.0,2,1,3,1,1.0303,15.6825,1.05,0.95,1.1,0.9
120,'C120',138.0,1,1,3,1,0.9663,2.5797,1.05,0.95,1.1,0.9
121,'C121',345.0,1,1,3,1,1.00518,8.0701,1.05,0.95,1.1,0.9
122,'C122',138.0,1,1,3,1,1.01564,9.587,1.05,0.95,1.1,0.9
123,'C123',138.0,1,1,3,1,0.99809,6.877,1.05,0.95,1.1,0.9
124,'C124',138.0,1,1,3,1,0.97439,-5.1097,1.05,0.95,1.1,0.9
125,'C125',18.0,1,1,3,1,1.02636,9.8716,1.05,0.95,1.1,0.9
126,'C126',18.0,1,1,3,1,1.02636,9.8716,1.05,0.95,1.1,0.9
127,'C127',345.0,1,1,3,1,1.01819,5.8243,1.05,0.95,1.1,0.9
128,'C128',138.0,1,1,3,1,1.00847,13.8834,1.05,0.95,1.1,0.9
129,'C129',24.0,2,1,3,1,1.0239,20.7475,1.05,0.95,1.1,0.9
130,'C130',138.0,1,1,3,1,1.00335,7.9167,1.05,0.95,1.1,0.9
131,'C131',138.0,1,1,3,1,1.01701,7.4974,1.05,0.95,1.1,0.9
132,'C132',138.0,1,1,3,1,1.00195,7.2285,1.05,0.95,1.1,0.9
133,'C133',138.0,1,1,3,1,0.99834,5.1433,1.05,0.95,1.1,0.9
134,'C134',138.0,1,1,3,1,1.00882,12.7194,1.05,0.95,1.1,0.9
135,'C135',345.0,1,1,3,1,1.02067,15.671,1.05,0.95,1.1,0.9
136,'C136',138.0,1,1,3,1,1.01163,10.4823,1.05,0.95,1.1,0.9
137,'C137',345.0,1,1,3,1,1.01554,10.285,1.05,0.95,1.1,0.9
138,'C138',138.0,1,1,3,1,0.98675,-3.8702,1.05,0.95,1.1,0.9
139,'C139',138.0,1,1,3,1,1.0054,5.2061,1.05,0.95,1.1,0.9
140,'C140',13.8,1,1,3,1,0.99764,3.9604,1.05,0.95,1.1,0.9
141,'C141',345.0,2,1,3,1,1.0393,10.6541,1.05,0.95,1.1,0.9
142,'C142',345.0,1,1,3,1,1.00494,8.0347,1.05,0.95,1.1,0.9
143,'C143',345.0,1,1,3,1,1.01459,22.3207,1.05,0.95,1.1,0.9
144,'C144',138.0,1,1,3,1,1.00278,5.1366,1.05,0.95,1.1,0.9
145,'C145',138.0,1,1,3,1,0.99551,7.6803,1.05,0.95,1.1,0.9
146,'C146',138.0,1,1,3,1,1.01501,13.0648,1.05,0.95,1.1,0.9
147,'C147',138.0,2,1,3,1,1.00726,6.0106,1.05,0.95,1.1,0.9
148,'C148',138.0,1,1,3,1,1.00091,4.8813,1.05,0.95,1.1,0.9
149,'C149',138.0,1,1,3,1,1.00715,9.8395,1.05,0.95,1.1,0.9
150,'C150',138.0,1,1,3,1,1.01268,6.189,1.05,0.95,1.1,0.9
151,'D151',230.0,2,1,4,1,1.00709,-3.4441,1.05,0.95,1.1,0.9
152,'D152',25.0,2,1,4,1,1.04,3.3424,1.05,0.95,1.1,0.9
153,'D153',115.0,1,1,4,1,1.01738,-3.9551,1.05,0.95,1.1,0.9
154,'D154',46.0,2,1,4,1,1.01,-1.2533,1.05,0.95,1.1,0.9
155,'D155',115.0,1,1,4,1,0.99661,-11.8022,1.05,0.95,1.1,0.9
156,'D156',115.0,1,1,4,1,1.00513,-7.4996,1.05,0.95,1.1,0.9
157,'D157',46.0,1,1,4,1,1.00521,-7.6337,1.05,0.95,1.1,0.9
158,'D158',115.0,1,1,4,1,1.00304,-7.5173,1.05,0.95,1.1,0.9
159,'D159',46.0,1,1,4,1,0.97801,-9.0314,1.05,0.95,1.1,0.9
160,'D160',230.0,2,1,4,1,1.00995,-0.248,1.05,0.95,1.1,0.9
161,'D161',46.0,1,1,4,1,0.97987,-9.4568,1.05,0.95,1.1,0.9
162,'D162',115.0,1,1,4,1,1.01475,-4.3156,1.05,0.95,1.1,0.9
163,'D163',13.8,2,1,4,1,1.00335,-7.8716,1.05,0.95,1.1,0.9
164,'D164',115.0,1,1,4,1,1.01057,-5.9863,1.05,0.95,1.1,0.9
165,'D165',115.0,1,1,4,1,1.00925,-6.4269,1.05,0.95,1.1,0.9
166,'D166',115.0,1,1,4,1,1.01926,-3.9782,1.05,0.95,1.1,0.9
167,'D167',230.0,1,1,4,1,1.00692,-3.0733,1.05,0.95,1.1,0.9
168,'D168',115.0,1,1,4,1,1.00577,-6.1205,1.05,0.95,1.1,0.9
169,'D169',115.0,1,1,4,1,1.01875,-4.0576,1.05,0.95,1.1,0.9
170,'D170',115.0,1,1,4,1,1.0053,-6.9705,1.05,0.95,1.1,0.9
171,'D171',230.0,1,1,4,1,1.01736,-2.4566,1.05,0.95,1.1,0.9
172,'D172',115.0,1,1,4,1,1.0057,-14.793,1.05,0.95,1.1,0.9
173,'D173',46.0,1,1,4,1,0.9897,-7.9583,1.05,0.95,1.1,0.9
174,'D174',115.0,1,1,4,1,1.02076,-3.7571,1.05,0.95,1.1,0.9
175,'D175',115.0,1,1,4,1,1.01708,-7.6021,1.05,0.95,1.1,0.9
176,'D176',115.0,1,1,4,1,1.01076,-5.9314,1.05,0.95,1.1,0.9
177,'D177',230.0,1,1,4,1,1.0095,-2.7334,1.05,0.95,1.1,0.9
178,'D178',34.5,2,1,4,1,1.00246,-6.7402,1.05,0.95,1.1,0.9
179,'D179',13.8,2,1,4,1,1.00513,-7.4996,1.05,0.95,1.1,0.9
180,'D180',115.0,1,1,4,1,1.01898,-17.2441,1.05,0.95,1.1,0.9
181,'D181',46.0,1,1,4,1,1.01557,-8.2147,1.05,0.95,1.1,0.9
182,'D182',34.5,2,1,4,1,1.00304,-7.5173,1.05,0.95,1.1,0.9
183,'D183',115.0,1,1,4,1,1.01883,-4.103,1.05,0.95,1.1,0.9
184,'D184',46.0,1,1,4,1,0.9867,-11.0613,1.05,0.95,1.1,0.9
185,'D185',115.0,1,1,4,1,1.01385,-4.4083,1.05,0.95,1.1,0.9
186,'D186',230.0,1,1,4,1,1.00879,-2.7791,1.05,0.95,1.1,0.9
187,'D187',115.0,1,1,4,1,0.99112,-10.6228,1.05,0.95,1.1,0.9
188,'D188',115.0,1,1,4,1,1.01844,-4.0069,1.05,0.95,1.1,0.9
189,'D189',230.0,1,1,4,1,1.00956,-1.9397,1.05,0.95,1.1,0.9
190,'D190',46.0,1,1,4,1,0.99418,-9.7511,1.05,0.95,1.1,0.9
191,'D191',22.0,1,1,4,1,1.03531,-0.4003,1.05,0.95,1.1,0.9
192,'D192',34.5,2,1,4,1,0.99898,-11.6342,1.05,0.95,1.1,0.9
193,'D193',115.0,1,1,4,1,1.01654,-9.2746,1.05,0.95,1.1,0.9
194,'D194',46.0,1,1,4,1,0.99876,-6.2904,1.05,0.95,1.1,0.9
195,'D195',46.0,1,1,4,1,0.9943,-10.0863,1.05,0.95,1.1,0.9
196,'D196',34.5,2,1,4,1,1.00304,-7.5173,1.05,0.95,1.1,0.9
197,'D197',46.0,1,1,4,1,0.98834,-9.3144,1.05,0.95,1.1,0.9
198,'D198',115.0,1,1,4,1,1.00827,-6.2876,1.05,0.95,1.1,0.9
199,'D199',34.5,2,1,4,1,1.00879,-2.7791,1.05,0.95,1.1,0.9
200,'D200',46.0,1,1,4,1,1.00003,-16.4914,1.05,0.95,1.1,0.9
...
0 / END OF BUS DATA BEGIN LOAD DATA
4,'1',1,1,1,-83.762,19.995,0.0,0.0,0.0,0.0,1,1,0
5,'1',1,1,1,107.92,-25.625,0.0,0.0,0.0,0.0,1,1,0
7,'1',1,1,1,-140.317,-0.725,0.0,0.0,0.0,0.0,1,1,0
9,'1',1,1,1,96.279,-40.617,0.0,0.0,0.0,0.0,1,1,0
11,'1',1,1,1,40.396,5.286,0.0,0.0,0.0,0.0,1,1,0
12,'99',0,1,1,22.891,2.788,0.0,0.0,0.0,0.0,1,1,0
14,'99',0,1,1,259.475,-10.863,0.0,0.0,0.0,0.0,1,1,0
15,'1',1,1,1,-83.78,19.995,0.0,0.0,0.0,0.0,1,1,0
16,'1',1,1,1,52.913,15.098,0.0,0.0,0.0,0.0,1,1,0
16,'2',1,1,1,59.454,0.681,0.0,0.0,0.0,0.0,1,1,0
16,'99',0,1,1,6.157,-17.663,0.0,0.0,0.0,0.0,1,1,0
17,'1',1,1,1,25.484,6.921,0.0,0.0,0.0,0.0,1,1,0
18,'1',1,1,1,36.383,2.731,0.0,0.0,0.0,0.0,1,1,0
21,'1',1,1,1,-84.434,26.147,0.0,0.0,0.0,0.0,1,1,0
25,'1',1,1,1,-95.006,20.941,0.0,0.0,0.0,0.0,1,1,0
26,'1',1,1,1,96.049,-19.597,0.0,0.0,0.0,0.0,1,1,0
27,'1',1,1,1,133.696,-36.913,0.0,0.0,0.0,0.0,1,1,0
28,'1',1,1,1,-191.532,-6.338,0.0,0.0,0.0,0.0,1,1,0
30,'1',1,1,1,77.751,23.539,0.0,0.0,0.0,0.0,1,1,0
32,'1',1,1,1,59.984,15.531,0.0,0.0,0.0,0.0,1,1,0
32,'99',0,1,1,19.614,-35.517,0.0,0.0,0.0,0.0,1,1,0
33,'1',1,1,1,-43.428,25.086,0.0,0.0,0.0,0.0,1,1,0
34,'1',1,1,1,92.593,73.951,0.0,0.0,0.0,0.0,1,1,0
35,'1',1,1,1,27.27,4.879,0.0,0.0,0.0,0.0,1,1,0
42,'1',1,1,1,32.255,5.374,0.0,0.0,0.0,0.0,1,1,0
44,'1',1,1,1,-140.308,-1.22,0.0,0.0,0.0,0.0,1,1,0
47,'1',1,1,1,135.225,-31.822,0.0,0.0,0.0,0.0,1,1,0
49,'1',1,1,1,29.806,3.766,0.0,0.0,0.0,0.0,1,1,0
50,'1',1,1,1,21.215,-4.817,0.0,0.0,0.0,0.0,1,1,0
52,'1',1,1,1,20.614,2.413,0.0,0.0,0.0,0.0,1,1,0
54,'1',1,1,1,70.998,2.997,0.0,0.0,0.0,0.0,1,1,0
54,'2',1,1,1,110.563,8.389,0.0,0.0,0.0,0.0,1,1,0
59,'99',1,1,2,10.079,-8.585,0.0,0.0,0.0,0.0,1,1,0
61,'1',1,1,2,-0.46,0.522,0.0,0.0,0.0,0.0,1,1,0
63,'1',1,1,2,8.981,-0.495,0.0,0.0,0.0,0.0,1,1,0
66,'1',1,1,2,3.589,-5.587,0.0,0.0,0.0,0.0,1,1,0
74,'1',1,1,3,62.68,28.675,0.0,0.0,0.0,0.0,1,1,0
75,'99',1,1,3,26.282,-13.641,0.0,0.0,0.0,0.0,1,1,0
77,'1',1,1,3,4.817,1.335,0.0,0.0,0.0,0.0,1,1,0
78,'1',1,1,3,9.9,-0.575,0.0,0.0,0.0,0.0,1,1,0
79,'1',1,1,3,49.58,-1.308,0.0,0.0,0.0,0.0,1,1,0
81,'1',1,1,3,18.899,4.261,0.0,0.0,0.0,0.0,1,1,0
83,'1',1,1,3,-5.754,5.763,0.0,0.0,0.0,0.0,1,1,0
85,'1',1,1,3,11.208,0.751,0.0,0.0,0.0,0.0,1,1,0
85,'2',1,1,3,15.177,1.635,0.0,0.0,0.0,0.0,1,1,0
86,'1',1,1,3,41.775,5.038,0.0,0.0,0.0,0.0,1,1,0
87,'99',1,1,3,420.47,6.778,0.0,0.0,0.0,0.0,1,1,0
88,'99',1,1,3,46.901,12.21,0.0,0.0,0.0,0.0,1,1,0
89,'99',1,1,3,167.739,1.942,0.0,0.0,0.0,0.0,1,1,0
90,'1',1,1,3,30.682,8.442,0.0,0.0,0.0,0.0,1,1,0
91,'1',1,1,3,8.91,2.121,0.0,0.0,0.0,0.0,1,1,0
92,'1',1,1,3,16.088,7.231,0.0,0.0,0.0,0.0,1,1,0
92,'2',1,1,3,16.088,7.231,0.0,0.0,0.0,0.0,1,1,0
92,'99',1,1,3,2.431,-18.642,0.0,0.0,0.0,0.0,1,1,0
93,'99',1,1,3,121.065,-20.55,0.0,0.0,0.0,0.0,1,1,0
94,'1',1,1,3,18.227,3.695,0.0,0.0,0.0,0.0,1,1,0
96,'1',1,1,3,14.249,3.023,0.0,0.0,0.0,0.0,1,1,0
97,'99',1,1,3,135.547,-27.475,0.0,0.0,0.0,0.0,1,1,0
98,'1',1,1,3,24.848,9.211,0.0,0.0,0.0,0.0,1,1,0
99,'1',1,1,3,35.685,12.304,0.0,0.0,0.0,0.0,1,1,0
99,'99',0,1,3,6.589,-2.898,0.0,0.0,0.0,0.0,1,1,0
103,'1',1,1,3,27.986,-23.477,0.0,0.0,0.0,0.0,1,1,0
107,'1',1,1,3,3.987,2.13,0.0,0.0,0.0,0.0,1,1,0
109,'99',1,1,3,78.086,-8.099,0.0,0.0,0.0,0.0,1,1,0
112,'1',1,1,3,20.781,26.448,0.0,0.0,0.0,0.0,1,1,0
113,'99',1,1,3,603.249,-91.877,0.0,0.0,0.0,0.0,1,1,0
114,'99',1,1,3,67.448,-16.19,0.0,0.0,0.0,0.0,1,1,0
115,'1',1,1,3,28.958,12.499,0.0,0.0,0.0,0.0,1,1,0
116,'1',1,1,3,25.493,1.414,0.0,0.0,0.0,0.0,1,1,0
117,'1',1,1,3,13.869,-2.864,0.0,0.0,0.0,0.0,1,1,0
119,'1',1,1,3,-1.52,5.472,0.0,0.0,0.0,0.0,1,1,0
122,'1',1,1,3,2.661,-9.069,0.0,0.0,0.0,0.0,1,1,0
123,'1',1,1,3,31.583,1.644,0.0,0.0,0.0,0.0,1,1,0
128,'1',1,1,3,32.184,5.295,0.0,0.0,0.0,0.0,1,1,0
128,'2',1,1,3,-2.007,3.324,0.0,0.0,0.0,0.0,1,1,0
129,'1',1,1,3,-1.529,5.357,0.0,0.0,0.0,0.0,1,1,0
130,'1',1,1,3,-41.041,4.181,0.0,0.0,0.0,0.0,1,1,0
131,'1',1,1,3,3.439,1.061,0.0,0.0,0.0,0.0,1,1,0
132,'1',1,1,3,108.212,13.834,0.0,0.0,0.0,0.0,1,1,0
133,'1',1,1,3,39.371,16.441,0.0,0.0,0.0,0.0,1,1,0
134,'1',1,1,3,20.781,12.384,0.0,0.0,0.0,0.0,1,1,0
136,'99',1,1,3,2.761,-10.228,0.0,0.0,0.0,0.0,1,1,0
138,'1',1,1,3,27.826,3.235,0.0,0.0,0.0,0.0,1,1,0
139,'1',1,1,3,-4.482,0.106,0.0,0.0,0.0,0.0,1,1,0
140,'1',1,1,3,13.878,-2.864,0.0,0.0,0.0,0.0,1,1,0
144,'1',1,1,3,11.138,0.698,0.0,0.0,0.0,0.0,1,1,0
145,'1',1,1,3,30.876,9.255,0.0,0.0,0.0,0.0,1,1,0
146,'1',1,1,3,1.476,3.545,0.0,0.0,0.0,0.0,1,1,0
146,'2',1,1,3,3.81,5.357,0.0,0.0,0.0,0.0,1,1,0
147,'1',1,1,3,16.291,3.792,0.0,0.0,0.0,0.0,1,1,0
148,'1',1,1,3,26.775,13.524,0.0,0.0,0.0,0.0,1,1,0
149,'1',1,1,3,16.486,10.386,0.0,0.0,0.0,0.0,1,1,0
149,'2',1,1,3,17.131,8.168,0.0,0.0,0.0,0.0,1,1,0
150,'1',1,1,3,0.919,2.802,0.0,0.0,0.0,0.0,1,1,0
153,'1',1,1,4,14.055,5.595,0.0,0.0,0.0,0.0,1,1,0
153,'2',1,1,4,12.976,-0.875,0.0,0.0,0.0,0.0,1,1,0
154,'1',1,1,4,34.421,-0.681,0.0,0.0,0.0,0.0,1,1,0
156,'1',1,1,4,8.592,1.246,0.0,0.0,0.0,0.0,1,1,0
159,'1',1,1,4,6.798,1.529,0.0,0.0,0.0,0.0,1,1,0
160,'99',0,1,4,131.274,-62.291,0.0,0.0,0.0,0.0,1,1,0
161,'1',1,1,4,15.778,5.79,0.0,0.0,0.0,0.0,1,1,0
162,'1',1,1,4,4.048,0.972,0.0,0.0,0.0,0.0,1,1,0
162,'2',1,1,4,7.761,1.388,0.0,0.0,0.0,0.0,1,1,0
162,'3',1,1,4,7.947,2.183,0.0,0.0,0.0,0.0,1,1,0
163,'1',1,1,4,5.622,1.017,0.0,0.0,0.0,0.0,1,1,0
164,'1',1,1,4,7.549,-1.14,0.0,0.0,0.0,0.0,1,1,0
165,'1',1,1,4,11.792,0.433,0.0,0.0,0.0,0.0,1,1,0
165,'2',1,1,4,17.873,1.989,0.0,0.0,0.0,0.0,1,1,0
166,'1',1,1,4,6.824,-0.539,0.0,0.0,0.0,0.0,1,1,0
166,'2',1,1,4,5.931,0.716,0.0,0.0,0.0,0.0,1,1,0
168,'1',1,1,4,2.113,0.84,0.0,0.0,0.0,0.0,1,1,0
168,'2',1,1,4,4.137,-2.325,0.0,0.0,0.0,0.0,1,1,0
170,'1',1,1,4,8.512,0.84,0.0,0.0,0.0,0.0,1,1,0
173,'1',1,1,4,20.684,0.716,0.0,0.0,0.0,0.0,1,1,0
174,'1',1,1,4,-0.362,-1.22,0.0,0.0,0.0,0.0,1,1,0
176,'1',1,1,4,11.447,-3.845,0.0,0.0,0.0,0.0,1,1,0
176,'2',1,1,4,10.987,-1.211,0.0,0.0,0.0,0.0,1,1,0
177,'99',1,1,4,136.999,-28.61,0.0,0.0,0.0,0.0,1,1,0
180,'1',1,1,4,11.5,-1.114,0.0,0.0,0.0,0.0,1,1,0
180,'2',1,1,4,12.092,1.644,0.0,0.0,0.0,0.0,1,1,0
180,'99',1,1,4,22.27,-21.212,0.0,0.0,0.0,0.0,1,1,0
181,'1',1,1,4,7.708,-0.619,0.0,0.0,0.0,0.0,1,1,0
183,'1',1,1,4,5.357,-1.37,0.0,0.0,0.0,0.0,1,1,0
184,'1',1,1,4,10.422,2.06,0.0,0.0,0.0,0.0,1,1,0
187,'1',1,1,4,5.737,-1.361,0.0,0.0,0.0,0.0,1,1,0
188,'1',1,1,4,2.714,-1.998,0.0,0.0,0.0,0.0,1,1,0
188,'2',1,1,4,2.325,-1.971,0.0,0.0,0.0,0.0,1,1,0
190,'1',1,1,4,7.381,0.415,0.0,0.0,0.0,0.0,1,1,0
191,'1',1,1,4,-0.46,0.522,0.0,0.0,0.0,0.0,1,1,0
193,'1',1,1,4,0.133,0.857,0.0,0.0,0.0,0.0,1,1,0
193,'99',1,1,4,83.762,-13.873,0.0,0.0,0.0,0.0,1,1,0
195,'1',1,1,4,7.62,-2.236,0.0,0.0,0.0,0.0,1,1,0
200,'1',1,1,4,10.448,-0.557,0.0,0.0,0.0,0.0,1,1,0
201,'1',1,1,4,6.364,2.183,0.0,0.0,0.0,0.0,1,1,0
203,'1',1,1,4,-0.831,-13.286,0.0,0.0,0.0,0.0,1,1,0
203,'2',1,1,4,3.447,-10.422,0.0,0.0,0.0,0.0,1,1,0
204,'99',0,1,4,67.773,-34.499,0.0,0.0,0.0,0.0,1,1,0
206,'1',1,1,4,-1.618,-0.362,0.0,0.0,0.0,0.0,1,1,0
207,'1',1,1,4,-0.292,4.331,0.0,0.0,0.0,0.0,1,1,0
208,'1',1,1,4,12.985,0.071,0.0,0.0,0.0,0.0,1,1,0
214,'1',1,1,4,12.251,-0.309,0.0,0.0,0.0,0.0,1,1,0
214,'2',1,1,4,12.251,-0.309,0.0,0.0,0.0,0.0,1,1,0
215,'1',1,1,4,3.934,2.413,0.0,0.0,0.0,0.0,1,1,0
216,'1',1,1,4,13.153,2.192,0.0,0.0,0.0,0.0,1,1,0
216,'2',1,1,4,11.836,0.689,0.0,0.0,0.0,0.0,1,1,0
217,'1',1,1,4,21.365,12.269,0.0,0.0,0.0,0.0,1,1,0
218,'1',1,1,4,17.626,1.025,0.0,0.0,0.0,0.0,1,1,0
219,'1',1,1,4,8.274,4.862,0.0,0.0,0.0,0.0,1,1,0
220,'1',1,1,4,5.251,1.061,0.0,0.0,0.0,0.0,1,1,0
221,'1',1,1,4,15.045,2.829,0.0,0.0,0.0,0.0,1,1,0
221,'2',1,1,4,17.44,1.618,0.0,0.0,0.0,0.0,1,1,0
222,'1',1,1,4,3.589,-5.587,0.0,0.0,0.0,0.0,1,1,0
223,'1',1,1,4,6.055,0.186,0.0,0.0,0.0,0.0,1,1,0
226,'99',1,1,4,52.758,-10.079,0.0,0.0,0.0,0.0,1,1,0
227,'1',1,1,4,-1.671,0.398,0.0,0.0,0.0,0.0,1,1,0
228,'1',1,1,4,14.399,5.056,0.0,0.0,0.0,0.0,1,1,0
229,'1',1,1,4,8.804,0.513,0.0,0.0,0.0,0.0,1,1,0
229,'2',1,1,4,13.118,1.75,0.0,0.0,0.0,0.0,1,1,0
231,'1',1,1,4,2.687,-2.157,0.0,0.0,0.0,0.0,1,1,0
233,'1',1,1,4,10.404,-0.168,0.0,0.0,0.0,0.0,1,1,0
235,'1',1,1,4,5.631,-0.504,0.0,0.0,0.0,0.0,1,1,0
236,'1',1,1,4,8.592,-0.734,0.0,0.0,0.0,0.0,1,1,0
239,'1',1,1,4,1.494,7.293,0.0,0.0,0.0,0.0,1,1,0
241,'99',1,1,4,19.316,-9.131,0.0,0.0,0.0,0.0,1,1,0
244,'1',1,1,4,19.243,0.177,0.0,0.0,0.0,0.0,1,1,0
246,'1',1,1,4,7.929,2.219,0.0,0.0,0.0,0.0,1,1,0
248,'1',1,1,4,9.547,2.254,0.0,0.0,0.0,0.0,1,1,0
249,'1',1,1,4,9.935,1.193,0.0,0.0,0.0,0.0,1,1,0
253,'1',1,1,5,33.599,6.32,0.0,0.0,0.0,0.0,1,1,0
254,'1',1,1,5,15.575,-1.432,0.0,0.0,0.0,0.0,1,1,0
256,'1',1,1,5,20.879,0.937,0.0,0.0,0.0,0.0,1,1,0
256,'2',1,1,5,20.879,0.937,0.0,0.0,0.0,0.0,1,1,0
259,'1',1,1,5,11.995,0.548,0.0,0.0,0.0,0.0,1,1,0
264,'1',1,1,5,10.554,-1.193,0.0,0.0,0.0,0.0,1,1,0
264,'2',1,1,5,10.554,-1.193,0.0,0.0,0.0,0.0,1,1,0
264,'3',1,1,5,10.554,-1.193,0.0,0.0,0.0,0.0,1,1,0
267,'1',1,1,5,17.714,0.309,0.0,0.0,0.0,0.0,1,1,0
267,'2',1,1,5,17.263,2.643,0.0,0.0,0.0,0.0,1,1,0
269,'1',1,1,5,58.446,8.839,0.0,0.0,0.0,0.0,1,1,0
273,'1',1,1,5,24.706,7.743,0.0,0.0,0.0,0.0,1,1,0
283,'1',1,1,5,15.407,1.22,0.0,0.0,0.0,0.0,1,1,0
284,'1',1,1,5,16.432,0.645,0.0,0.0,0.0,0.0,1,1,0
284,'2',1,1,5,16.432,0.645,0.0,0.0,0.0,0.0,1,1,0
284,'3',1,1,5,16.432,0.645,0.0,0.0,0.0,0.0,1,1,0
284,'4',1,1,5,16.432,0.645,0.0,0.0,0.0,0.0,1,1,0
287,'1',1,1,5,15.69,10.775,0.0,0.0,0.0,0.0,1,1,0
287,'2',1,1,5,15.69,10.775,0.0,0.0,0.0,0.0,1,1,0
291,'1',1,1,5,12.932,2.024,0.0,0.0,0.0,0.0,1,1,0
292,'99',1,1,5,288.385,69.081,0.0,0.0,0.0,0.0,1,1,0
294,'1',1,1,5,20.967,0.751,0.0,0.0,0.0,0.0,1,1,0
294,'2',1,1,5,20.967,0.751,0.0,0.0,0.0,0.0,1,1,0
296,'1',1,1,5,29.285,15.999,0.0,0.0,0.0,0.0,1,1,0
298,'1',1,1,5,39.291,10.908,0.0,0.0,0.0,0.0,1,1,0
298,'2',1,1,5,39.291,10.908,0.0,0.0,0.0,0.0,1,1,0
303,'1',1,1,5,19.093,0.884,0.0,0.0,0.0,0.0,1,1,0
309,'1',1,1,5,1.821,-7.823,0.0,0.0,0.0,0.0,1,1,0
312,'1',1,1,5,7.16,2.369,0.0,0.0,0.0,0.0,1,1,0
313,'1',1,1,5,7.204,11.827,0.0,0.0,0.0,0.0,1,1,0
313,'2',1,1,5,45.435,24.697,0.0,0.0,0.0,0.0,1,1,0
316,'1',1,1,5,18.315,-2.033,0.0,0.0,0.0,0.0,1,1,0
...
0 / END OF LOAD DATA BEGIN FIXED SHUNT DATA
12,'99',1,0.0,2.664
16,'99',1,0.0,-17.445
23,'99',1,0.0,10.787
32,'99',1,0.0,-34.159
66,'99',1,0.0,-15.861
99,'99',1,0.0,-2.847
110,'99',1,0.0,7.776
116,'99',1,0.0,51.25
131,'99',1,0.0,7.254
160,'99',1,0.0,-59.884
204,'99',1,0.0,-32.353
223,'99',1,0.0,12.54
225,'99',1,0.0,3.413
294,'99',1,0.0,-4.561
300,'99',1,0.0,-22.762
315,'99',1,0.0,20.519
319,'99',1,0.0,-24.136
331,'99',1,0.0,-40.033
373,'99',1,0.0,-42.075
380,'99',1,0.0,-7.745
413,'99',1,0.0,26.063
415,'99',1,0.0,18.111
417,'99',1,0.0,12.322
463,'99',1,0.0,5.565
469,'99',1,0.0,8.481
477,'99',1,0.0,4.788
490,'99',1,0.0,40.614
493,'99',1,0.0,-15.605
505,'99',1,0.0,11.031
511,'99',1,0.0,7.141
526,'99',1,0.0,58.406
536,'99',1,0.0,10.172
559,'99',1,0.0,-7.526
660,'99',1,0.0,131.363
666,'99',1,0.0,-1.426
678,'99',1,0.0,46.173
910,'99',1,0.0,-17.163
949,'99',1,0.0,-57.137
975,'99',1,0.0,-22.802
1026,'99',1,0.0,52.62
1065,'99',1,0.0,-17.869
1186,'99',1,0.0,-13.527
1206,'99',1,0.0,-21.227
1212,'99',1,0.0,7.441
1214,'99',1,0.0,-10.675
1261,'99',1,0.0,-26.327
1268,'99',1,0.0,-13.078
1326,'99',1,0.0,0.447
1366,'99',1,0.0,30.53
1367,'99',1,0.0,-85.711
1389,'99',1,0.0,21.371
1405,'99',1,0.0,-5.636
1469,'99',1,0.0,4.576
1472,'99',1,0.0,68.875
1490,'99',1,0.0,-11.341
1523,'99',1,0.0,-0.597
1596,'99',1,0.0,-2.77
1608,'99',1,0.0,107.695
1666,'99',1,0.0,35.076
1713,'99',1,0.0,44.457
1715,'99',1,0.0,28.052
1754,'99',1,0.0,9.137
1769,'99',1,0.0,137.513
1772,'99',1,0.0,18.26
1871,'99',1,0.0,109.182
1874,'99',1,0.0,17.981
1881,'99',1,0.0,-1.066
1899,'99',1,0.0,-55.276
1966,'99',1,0.0,10.11
1983,'99',1,0.0,89.017
1991,'99',1,0.0,-6.216
1992,'99',1,0.0,-63.017
1994,'99',1,0.0,125.504
2163,'99',1,0.0,-24.38
2185,'99',1,0.0,41.553
2192,'99',1,0.0,-22.419
2199,'99',1,0.0,-43.771
2208,'99',1,0.0,5.411
2230,'99',1,0.0,1.625
2242,'99',1,0.0,45.209
2252,'99',1,0.0,20.955
2303,'99',1,0.0,-1.985
2324,'99',1,0.0,-12.701
2375,'99',1,0.0,-0.797
2386,'99',1,0.0,2.301
2389,'99',1,0.0,18.865
2397,'99',1,0.0,-4.732
2429,'99',1,0.0,1.7
2436,'99',1,0.0,-2.858
2437,'99',1,0.0,-2.864
2439,'99',1,0.0,-3.769
2440,'99',1,0.0,-3.77
2443,'99',1,0.0,-21.078
2444,'99',1,0.0,-21.078
2445,'99',1,0.0,-39.396
2448,'99',1,0.0,25.649
2451,'99',1,0.0,-1.928
2452,'99',1,0.0,-1.942
2505,'99',1,0.0,1.655
2537,'99',1,0.0,5.439
2557,'99',1,0.0,-2.408
2568,'99',1,0.0,31.065
2585,'99',1,0.0,35.6
2612,'99',1,0.0,23.459
2633,'99',1,0.0,-0.849
2634,'99',1,0.0,4.733
2645,'99',1,0.0,-13.322
2664,'99',1,0.0,-0.759
2671,'99',1,0.0,0.624
2689,'99',1,0.0,3.275
2792,'99',1,0.0,12.308
2800,'99',1,0.0,-45.119
2813,'99',1,0.0,42.927
2814,'99',1,0.0,74.913
2826,'99',1,0.0,-128.245
2829,'99',1,0.0,-106.655
2836,'99',1,0.0,0.709
2840,'99',1,0.0,53.016
2841,'99',1,0.0,-1.039
2843,'99',1,0.0,10.356
2873,'99',1,0.0,0.713
2874,'99',1,0.0,-7.759
2921,'99',1,0.0,4.396
2922,'99',1,0.0,-46.019
2935,'99',1,0.0,-1.674
2955,'99',1,0.0,-1.64
2966,'99',1,0.0,5.996
2991,'99',1,0.0,-14.913
2995,'99',1,0.0,3.541
0 / END OF FIXED SHUNT DATA BEGIN GENERATOR DATA
9,'94',3.1,-1.826,500.0,-500.0,1.0,0,100.0,0.0,1.0,0.0,0.0,1.0,1,100.0,40.0,3.0,1,1.0,0,1.0,0,1.0,0,1.0,0,1.0
21,'1',0.0,0.0,532.035,-532.035,1.0,0,100.0,0.0,1.0,0.0,0.0,1.0,0,100.0,1764.706,88.235,1,1.0,0,1.0,0,1.0,0,1.0,0,1.0
23,'99',288.798,-33.333,33.333,-33.333,1.01092,0,100.0,0.0,1.0,0.0,0.0,1.0,1,100.0,357.409,17.87,1,1.0,0,1.0,0,1.0,0,1.0,0,1.0
25,'1',196.794,-44.571,400.0,-400.0,1.0,0,100.0,0.0,1.0,0.0,0.0,1.0,1,100.0,2076.125,103.806,1,1.0,0,1.0,0,1.0,0,1.0,0,1.0
27,'99',88.858,31.499,550.0,-550.0,1.0361,0,100.0,0.0,1.0,0.0,0.0,1.0,1,100.0,1500.0,28.457,1,1.0,0,1.0,0,1.0,0,1.0,0,1.0
42,'99',37.348,61.387,550.0,-550.0,1.0108,0,100.0,0.0,1.0,0.0,0.0,1.0,1,100.0,1500.0,11.961,1,1.0,0,1.0,0,1.0,0,1.0,0,1.0
46,'99',161.897,-49.943,550.0,-550.0,1.0132,0,100.0,0.0,1.0,0.0,0.0,1.0,1,100.0,1500.0,51.849,1,1.0,0,1.0,0,1.0,0,1.0,0,1.0
51,'99',25.742,26.401,550.0,-550.0,1.0218,0,100.0,0.0,1.0,0.0,0.0,1.0,1,100.0,1500.0,8.244,1,1.0,0,1.0,0,1.0,0,1.0,0,1.0
55,'1',0.0,0.0,131.303,-131.303,1.04,0,35.0,0.0,0.8,0.0,0.0,1.0,0,100.0,422.059,5.7,1,1.0,0,1.0,0,1.0,0,1.0,0,1.0
60,'1',20.441,2.3,9.352,-9.352,1.04,0,100.0,0.0,1.0,0.0,0.0,1.0,1,100.0,41.606,3.0,1,1.0,0,1.0,0,1.0,0,1.0,0,1.0
70,'1',41.36,-3.492,9.296,-9.296,1.04,0,100.0,0.0,1.0,0.0,0.0,1.0,1,100.0,41.36,5.32,1,1.0,0,1.0,0,1.0,0,1.0,0,1.0
73,'99',127.302,40.527,550.0,-550.0,1.0,0,100.0,0.0,1.0,0.0,0.0,1.0,1,100.0,1500.0,40.769,1,1.0,0,1.0,0,1.0,0,1.0,0,1.0
75,'1',627.29,60.361,425.895,-425.895,1.04,0,1020.0,0.0033,0.243,0.0014,0.1257,1.0,1,100.0,2000.0,10.0,1,1.0,0,1.0,0,1.0,0,1.0,0,1.0
75,'2',1065.871,102.564,426.656,-426.656,1.04,0,1020.0,0.0033,0.243,0.0014,0.1257,1.0,1,100.0,2000.0,10.0,1,1.0,0,1.0,0,1.0,0,1.0,0,1.0
78,'99',8.221,27.597,550.0,-550.0,1.0085,0,100.0,0.0,1.0,0.0,0.0,1.0,1,100.0,1500.0,3.0,1,1.0,0,1.0,0,1.0,0,1.0,0,1.0
96,'99',19.266,-16.488,550.0,-550.0,1.0133,0,100.0,0.0,1.0,0.0,0.0,1.0,1,100.0,1500.0,6.17,1,1.0,0,1.0,0,1.0,0,1.0,0,1.0
112,'97',3.1,3.66,3.66,-3.66,1.01,0,100.0,0.0,0.1,0.0,0.0,1.0,1,100.0,40.0,3.0,1,1.0,0,1.0,0,1.0,0,1.0,0,1.0
116,'99',3.1,51.286,51.286,-51.286,1.0311,0,100.0,0.0,1.0,0.0,0.0,1.0,1,100.0,228.172,3.0,1,1.0,0,1.0,0,1.0,0,1.0,0,1.0
119,'1',0.0,0.0,284.382,-284.382,1.04,0,686.0,0.0,0.195,0.0,0.0,1.0,0,100.0,914.118,45.706,1,1.0,0,1.0,0,1.0,0,1.0,0,1.0
129,'1',758.711,146.548,281.019,-281.019,1.0239,0,686.0,0.0,0.195,0.0,0.0,1.0,1,100.0,1250.255,3.0,1,1.0,0,1.0,0,1.0,0,1.0,0,1.0
141,'99',505.852,27.264,550.0,-550.0,1.0393,0,100.0,0.0,1.0,0.0,0.0,1.0,1,100.0,1500.0,75.0,1,1.0,0,1.0,0,1.0,0,1.0,0,1.0
147,'1',40.0,9.607,9.607,-9.607,1.0298,0,100.0,0.0,1.0,0.0,0.0,1.0,1,100.0,40.0,3.0,1,1.0,0,1.0,0,1.0,0,1.0,0,1.0
151,'1',0.0,0.0,120.323,-120.323,1.013,0,100.0,0.0,1.0,0.0,0.0,1.0,0,100.0,386.765,19.338,1,1.0,0,1.0,0,1.0,0,1.0,0,1.0
152,'1',75.0,3.547,135.878,-135.878,1.04,0,35.0,0.0,0.8,0.0,0.0,1.0,1,100.0,436.765,5.7,1,1.0,0,1.0,0,1.0,0,1.0,0,1.0
154,'1',296.0,-18.372,135.42,-135.42,1.01,0,100.0,0.0,1.0,0.0,0.0,1.0,1,100.0,512.111,3.0,1,1.0,0,1.0,0,1.0,0,1.0,0,1.0
160,'1',3.1,0.0,16.813,-16.813,1.0199,0,40.6,0.0,0.15,0.0002,0.0548,1.025,0,100.0,54.044,3.0,1,1.0,0,1.0,0,1.0,0,1.0,0,1.0
163,'1',0.0,0.0,32.357,-32.357,1.0249,0,60.67,0.0,0.15,0.0,0.0,1.01,0,100.0,104.007,9.5,1,1.0,0,1.0,0,1.0,0,1.0,0,1.0
178,'1',3.1,0.0,8.321,-8.321,1.04,0,52.5,0.0,0.8,0.0,0.0,1.0,0,100.0,26.746,3.0,1,1.0,0,1.0,0,1.0,0,1.0,0,1.0
179,'1',0.0,0.0,56.044,-56.044,1.0265,0,102.0,0.0,0.15,0.0,0.0,1.005,0,100.0,180.147,38.0,1,1.0,0,1.0,0,1.0,0,1.0,0,1.0
182,'1',0.0,0.0,10.426,-10.426,1.0235,0,38.65,0.0,0.8,0.0,0.0,1.0,0,100.0,33.515,7.79,1,1.0,0,1.0,0,1.0,0,1.0,0,1.0
192,'1',0.0,0.0,134.962,-134.962,1.0095,0,100.0,0.0,0.18599,0.0,0.0,1.0,0,100.0,433.824,21.691,1,1.0,0,1.0,0,1.0,0,1.0,0,1.0
196,'1',3.1,0.0,11.929,-11.929,1.0235,0,38.65,0.0,0.8,0.0,0.0,1.0,0,100.0,38.346,3.0,1,1.0,0,1.0,0,1.0,0,1.0,0,1.0
199,'1',0.0,0.0,14.745,-14.745,1.0298,0,126.32,0.0,0.8,0.0,0.0,1.0,0,100.0,47.397,19.66,1,1.0,0,1.0,0,1.0,0,1.0,0,1.0
199,'2',0.0,0.0,24.019,-24.019,1.0298,0,100.0,0.0,1.0,0.0,0.0,1.0,0,100.0,77.206,3.86,1,1.0,0,1.0,0,1.0,0,1.0,0,1.0
199,'3',3.1,0.0,9.607,-9.607,1.0298,0,100.0,0.0,1.0,0.0,0.0,1.0,0,100.0,30.882,3.0,1,1.0,0,1.0,0,1.0,0,1.0,0,1.0
211,'1',22.022,4.184,11.209,-11.209,1.0182,0,100.0,0.0,1.0,0.0,0.0,1.0,1,100.0,40.0,3.0,1,1.0,0,1.0,0,1.0,0,1.0,0,1.0
217,'1',0.0,0.0,297.832,-297.832,1.0,0,733.0,0.0,0.295,0.0,0.0,1.0,0,100.0,957.353,304.0,1,1.0,0,1.0,0,1.0,0,1.0,0,1.0
224,'1',0.0,0.0,431.367,-431.367,1.0116,0,650.0,0.0,0.225,0.0,0.0,1.0,0,100.0,1386.585,427.4,1,1.0,0,1.0,0,1.0,0,1.0,0,1.0
237,'1',0.0,0.0,10.34,-10.34,1.0303,0,100.0,0.0,1.0,0.0,0.0,1.0,0,100.0,33.235,7.6,1,1.0,0,1.0,0,1.0,0,1.0,0,1.0
243,'99',28.018,21.538,550.0,-550.0,1.0124,0,100.0,0.0,1.0,0.0,0.0,1.0,1,100.0,1500.0,8.973,1,1.0,0,1.0,0,1.0,0,1.0,0,1.0
252,'1',0.0,0.0,69.06,-69.06,1.02,0,250.0,0.0,0.243,0.0,0.0,1.0,0,100.0,221.985,11.099,1,1.0,0,1.0,0,1.0,0,1.0,0,1.0
257,'1',0.0,0.0,24.979,-24.979,1.01,0,25.98,0.0,0.195,0.0,0.0,1.0,0,100.0,80.294,20.65,1,1.0,0,1.0,0,1.0,0,1.0,0,1.0
263,'1',47.25,12.722,21.617,-21.617,1.0207,0,43.45,0.0,0.165,0.0,0.0,1.0,1,100.0,81.747,4.087,1,1.0,0,1.0,0,1.0,0,1.0,0,1.0
267,'99',6.45,167.814,550.0,-550.0,1.0348,0,100.0,0.0,1.0,0.0,0.0,1.0,1,100.0,1500.0,3.0,1,1.0,0,1.0,0,1.0,0,1.0,0,1.0
269,'99',115.739,23.272,550.0,-550.0,1.0363,0,100.0,0.0,1.0,0.0,0.0,1.0,1,100.0,1500.0,38.686,1,1.0,0,1.0,0,1.0,0,1.0,0,1.0
274,'1',40.95,18.735,18.735,-18.735,1.01,0,44.0,0.0,0.195,0.0,0.0,1.0,1,100.0,70.848,4.75,1,1.0,0,1.0,0,1.0,0,1.0,0,1.0
286,'99',559.626,-147.478,550.0,-550.0,1.02,0,100.0,0.0,1.0,0.0,0.0,1.0,1,100.0,1500.0,75.0,1,1.0,0,1.0,0,1.0,0,1.0,0,1.0
293,'1',58.5,26.764,26.764,-26.764,1.03,0,73.0,0.0,0.132,0.0,0.0,1.0,1,100.0,119.072,4.75,1,1.0,0,1.0,0,1.0,0,1.0,0,1.0
302,'1',0.0,0.0,120.323,-120.323,1.0238,0,6.25,0.0,0.15,0.0,0.0,1.025,0,100.0,386.765,5.142,1,1.0,0,1.0,0,1.0,0,1.0,0,1.0
305,'1',271.0,24.724,123.982,-123.982,1.0194,0,100.0,0.0,1.0,0.0,0.0,1.0,1,100.0,551.598,27.58,1,1.0,0,1.0,0,1.0,0,1.0,0,1.0
314,'1',0.0,0.0,307.92,-307.92,1.01,0,370.6,0.0,0.2489,0.0,0.0,1.0,0,100.0,989.779,251.2,1,1.0,0,1.0,0,1.0,0,1.0,0,1.0
322,'99',115.704,-1.601,550.0,-550.0,1.0,0,100.0,0.0,1.0,0.0,0.0,1.0,1,100.0,1500.0,37.055,1,1.0,0,1.0,0,1.0,0,1.0,0,1.0
332,'1',105.0,-17.611,48.037,-48.037,1.0229,0,100.0,0.0,1.0,0.0,0.0,1.0,1,100.0,181.661,4.5,1,1.0,0,1.0,0,1.0,0,1.0,0,1.0
333,'1',3.1,0.0,7.206,-7.206,1.03,0,100.0,0.0,1.0,0.0,0.0,1.0,0,100.0,23.162,3.0,1,1.0,0,1.0,0,1.0,0,1.0,0,1.0
336,'1',0.0,0.0,86.467,-86.467,1.0314,0,234.0,0.0,0.1796,0.0,0.0,1.0,0,100.0,326.99,94.05,1,1.0,0,1.0,0,1.0,0,1.0,0,1.0
339,'1',257.0,-73.336,117.578,-117.578,1.0017,0,100.0,0.0,1.0,0.0,0.0,1.0,1,100.0,523.102,1.95,1,1.0,0,1.0,0,1.0,0,1.0,0,1.0
350,'1',0.0,0.0,66.292,-66.292,1.04,0,43.45,0.0,0.165,0.0,0.0,1.0,0,100.0,213.088,25.933,1,1.0,0,1.0,0,1.0,0,1.0,0,1.0
351,'99',425.174,-123.919,550.0,-550.0,1.02,0,100.0,0.0,1.0,0.0,0.0,1.0,1,100.0,1500.0,75.0,1,1.0,0,1.0,0,1.0,0,1.0,0,1.0
352,'1',0.0,0.0,215.089,-215.089,1.01,0,100.0,0.0,1.0,0.0,0.0,1.0,0,100.0,691.382,34.569,1,1.0,0,1.0,0,1.0,0,1.0,0,1.0
353,'1',0.0,0.0,101.107,-101.107,1.0314,0,213.4,0.0,0.1796,0.0,0.0,1.0,0,100.0,325.0,94.05,1,1.0,0,1.0,0,1.0,0,1.0,0,1.0
356,'1',187.202,-128.1,128.1,-128.1,1.0033,0,100.0,0.0,1.0,0.0,0.0,1.0,1,100.0,411.765,3.0,1,1.0,0,1.0,0,1.0,0,1.0,0,1.0
358,'2',270.0,-123.525,123.525,-123.525,1.0029,0,100.0,0.0,1.0,0.0,0.0,1.0,1,100.0,549.562,1.083,1,1.0,0,1.0,0,1.0,0,1.0,0,1.0
359,'1',0.0,0.0,243.07,-243.07,1.0245,0,595.0,0.0,0.225,0.0026,0.1541,1.0,0,100.0,781.324,124.8,1,1.0,0,1.0,0,1.0,0,1.0,0,1.0
368,'1',50.707,-5.145,25.986,-25.986,1.0184,0,71.18,0.0,0.144,0.0,0.0,1.0,1,100.0,115.612,5.781,1,1.0,0,1.0,0,1.0,0,1.0,0,1.0
371,'1',267.0,24.136,122.152,-122.152,1.0257,0,64.7,0.0,0.096,0.0,0.0,1.0,1,100.0,461.938,14.58,1,1.0,0,1.0,0,1.0,0,1.0,0,1.0
371,'2',0.0,0.0,118.95,-118.95,1.0257,0,64.7,0.0,0.096,0.0,0.0,1.0,0,100.0,382.353,19.118,1,1.0,0,1.0,0,1.0,0,1.0,0,1.0
371,'3',0.0,0.0,19.627,-19.627,1.0257,0,49.4,0.0,0.101,0.0,0.0,1.0,0,100.0,63.088,13.46,1,1.0,0,1.0,0,1.0,0,1.0,0,1.0
372,'1',189.0,7.997,86.467,-86.467,1.01,0,213.4,0.0,0.1796,0.0,0.0,1.0,1,100.0,277.941,13.897,1,1.0,0,1.0,0,1.0,0,1.0,0,1.0
375,'1',0.0,0.0,21.617,-21.617,1.03,0,43.45,0.0,0.165,0.0,0.0,1.0,0,100.0,69.485,4.75,1,1.0,0,1.0,0,1.0,0,1.0,0,1.0
379,'1',553.35,78.443,253.158,-253.158,1.01,0,382.6,0.0,0.193,0.0,0.0,1.0,1,100.0,1126.297,125.708,1,1.0,0,1.0,0,1.0,0,1.0,0,1.0
382,'1',0.0,0.0,86.467,-86.467,1.0314,0,234.0,0.0,0.1796,0.0,0.0,1.0,0,100.0,277.941,94.05,1,1.0,0,1.0,0,1.0,0,1.0,0,1.0
388,'99',312.512,100.817,550.0,-550.0,1.0347,0,100.0,0.0,1.0,0.0,0.0,1.0,1,100.0,1500.0,28.605,1,1.0,0,1.0,0,1.0,0,1.0,0,1.0
392,'1',255.0,67.386,116.663,-116.663,1.01,0,100.0,0.0,1.0,0.0,0.0,1.0,1,100.0,519.031,2.025,1,1.0,0,1.0,0,1.0,0,1.0,0,1.0
398,'1',272.0,-6.219,124.44,-124.44,1.0348,0,19.0,0.0,0.181,0.0,0.0,1.045,1,100.0,553.633,3.0,1,1.0,0,1.0,0,1.0,0,1.0,0,1.0
401,'1',0.0,0.0,312.244,-312.244,1.0314,0,369.0,0.0,0.2489,0.0,0.0,1.0,0,100.0,1003.676,127.708,1,1.0,0,1.0,0,1.0,0,1.0,0,1.0
412,'99',80.864,6.096,550.0,-550.0,1.0,0,100.0,0.0,1.0,0.0,0.0,1.0,1,100.0,1500.0,25.897,1,1.0,0,1.0,0,1.0,0,1.0,0,1.0
414,'99',57.936,96.566,550.0,-550.0,1.0277,0,100.0,0.0,1.0,0.0,0.0,1.0,1,100.0,1500.0,18.554,1,1.0,0,1.0,0,1.0,0,1.0,0,1.0
421,'1',40.0,-55.645,605.021,-605.021,1.0252,0,100.0,0.0,1.0,0.0,0.0,1.0,1,100.0,40.0,3.0,1,1.0,0,1.0,0,1.0,0,1.0,0,1.0
431,'99',3.1,98.632,550.0,-550.0,1.0431,0,100.0,0.0,1.0,0.0,0.0,1.0,1,100.0,1500.0,3.0,1,1.0,0,1.0,0,1.0,0,1.0,0,1.0
433,'99',5.291,56.064,550.0,-550.0,1.0389,0,100.0,0.0,1.0,0.0,0.0,1.0,1,100.0,1500.0,3.0,1,1.0,0,1.0,0,1.0,0,1.0,0,1.0
442,'99',29.234,103.928,550.0,-550.0,1.0361,0,100.0,0.0,1.0,0.0,0.0,1.0,1,100.0,1500.0,9.363,1,1.0,0,1.0,0,1.0,0,1.0,0,1.0
456,'99',381.384,275.851,550.0,-550.0,1.0461,0,100.0,0.0,1.0,0.0,0.0,1.0,1,100.0,1500.0,75.0,1,1.0,0,1.0,0,1.0,0,1.0,0,1.0
468,'1',62.145,21.535,28.431,-28.431,1.03,0,58.71,0.0,0.284,0.0,0.0,1.0,1,100.0,126.491,28.5,1,1.0,0,1.0,0,1.0,0,1.0,0,1.0
474,'1',0.0,0.0,133.133,-133.133,1.03,0,52.94,0.0,0.2,0.0,0.0,1.0,0,100.0,427.941,21.397,1,1.0,0,1.0,0,1.0,0,1.0,0,1.0
474,'2',0.0,0.0,19.215,-19.215,1.03,0,52.94,0.0,0.2,0.0,0.0,1.0,0,100.0,61.765,14.25,1,1.0,0,1.0,0,1.0,0,1.0,0,1.0
506,'1',0.0,0.0,119.408,-119.408,1.0,0,250.0,0.0,0.3,0.0,0.0,0.9706,0,100.0,383.824,19.191,1,1.0,0,1.0,0,1.0,0,1.0,0,1.0
510,'99',3.1,-83.367,550.0,-550.0,1.0272,0,100.0,0.0,1.0,0.0,0.0,1.0,1,100.0,1500.0,3.0,1,1.0,0,1.0,0,1.0,0,1.0,0,1.0
543,'99',406.969,40.076,550.0,-550.0,1.0191,0,100.0,0.0,1.0,0.0,0.0,1.0,1,100.0,1500.0,75.0,1,1.0,0,1.0,0,1.0,0,1.0,0,1.0
563,'1',0.0,0.0,384.3,-384.3,1.0146,0,100.0,0.0,1.0,0.0,0.0,1.0,0,100.0,1235.294,61.765,1,1.0,0,1.0,0,1.0,0,1.0,0,1.0
566,'1',326.595,-25.516,368.928,-368.928,1.0124,0,841.0,0.0,0.25,0.0,0.0,0.0,1,100.0,1395.156,3.0,1,1.0,0,1.0,0,1.0,0,1.0,0,1.0
569,'99',14.336,9.338,550.0,-550.0,1.0293,0,100.0,0.0,1.0,0.0,0.0,1.0,1,100.0,1500.0,4.591,1,1.0,0,1.0,0,1.0,0,1.0,0,1.0
579,'1',254.1,10.786,116.251,-116.251,1.0135,0,100.0,0.0,1.0,0.0,0.0,1.0,1,100.0,517.199,25.86,1,1.0,0,1.0,0,1.0,0,1.0,0,1.0
582,'1',420.583,-37.595,320.404,-320.404,1.0,0,659.0,0.0117,0.28,0.0,0.0,0.0,1,100.0,1425.478,3.0,1,1.0,0,1.0,0,1.0,0,1.0,0,1.0
584,'99',3.1,-24.181,24.181,-24.181,1.01,0,100.0,0.0,1.0,0.0,0.0,1.0,1,100.0,40.0,3.0,1,1.0,0,1.0,0,1.0,0,1.0,0,1.0
588,'1',0.0,0.0,22.578,-22.578,1.04,0,100.0,0.0,1.0,0.0,0.0,1.0,0,100.0,72.574,3.629,1,1.0,0,1.0,0,1.0,0,1.0,0,1.0
609,'99',3.1,50.544,550.0,-550.0,1.017,0,100.0,0.0,1.0,0.0,0.0,1.0,1,100.0,1500.0,3.0,1,1.0,0,1.0,0,1.0,0,1.0,0,1.0
614,'1',591.15,121.549,270.451,-270.451,1.03,0,100.0,0.0,1.0,0.0,0.0,1.0,1,100.0,1203.236,3.0,1,1.0,0,1.0,0,1.0,0,1.0,0,1.0
626,'1',0.0,0.0,319.141,-319.141,1.0,0,659.0,0.0117,0.28,0.0,0.0,0.0,0,100.0,1025.846,51.292,1,1.0,0,1.0,0,1.0,0,1.0,0,1.0
629,'1',0.0,0.0,174.857,-174.857,1.03,0,100.0,0.0,1.0,0.0,0.0,1.0,0,100.0,562.059,28.103,1,1.0,0,1.0,0,1.0,0,1.0,0,1.0
630,'1',0.0,0.0,29.303,-29.303,1.03,0,55.0,0.0,0.138,0.0,0.0,0.0,0,100.0,94.191,4.71,1,1.0,0,1.0,0,1.0,0,1.0,0,1.0
630,'2',0.0,0.0,26.421,-26.421,1.03,0,55.0,0.0,0.138,0.0,0.0,0.0,0,100.0,84.926,4.246,1,1.0,0,1.0,0,1.0,0,1.0,0,1.0
630,'3',57.75,26.421,26.421,-26.421,1.03,0,55.0,0.0,0.138,0.0,0.0,0.0,1,100.0,117.545,3.375,1,1.0,0,1.0,0,1.0,0,1.0,0,1.0
630,'4',67.2,30.744,30.744,-30.744,1.03,0,55.0,0.0,0.138,0.0,0.0,0.0,1,100.0,136.78,3.0,1,1.0,0,1.0,0,1.0,0,1.0,0,1.0
630,'5',0.0,0.0,25.94,-25.94,1.03,0,55.0,0.0,0.138,0.0,0.0,0.0,0,100.0,83.382,4.169,1,1.0,0,1.0,0,1.0,0,1.0,0,1.0
630,'6',0.0,0.0,25.94,-25.94,1.03,0,55.0,0.0,0.138,0.0,0.0,0.0,0,100.0,83.382,4.169,1,1.0,0,1.0,0,1.0,0,1.0,0,1.0
634,'2',3.1,0.0,7.206,-7.206,1.03,0,19.0,0.0,0.155,0.0,0.15,1.0,0,100.0,23.162,3.0,1,1.0,0,1.0,0,1.0,0,1.0,0,1.0
638,'1',642.6,30.892,293.99,-293.99,1.0185,0,718.0,0.0,0.308,0.0,0.0,0.0,1,100.0,1307.958,65.398,1,1.0,0,1.0,0,1.0,0,1.0,0,1.0
652,'1',0.0,0.0,22.578,-22.578,1.003,0,55.6,0.0,0.16,0.0,0.0,0.0,0,100.0,72.574,3.629,1,1.0,0,1.0,0,1.0,0,1.0,0,1.0
652,'2',0.0,0.0,22.578,-22.578,1.003,0,55.6,0.0,0.16,0.0,0.0,0.0,0,100.0,72.574,3.629,1,1.0,0,1.0,0,1.0,0,1.0,0,1.0
652,'3',51.45,-8.068,23.538,-23.538,1.003,0,55.6,0.0,0.16,0.0,0.0,0.0,1,100.0,75.662,3.0,1,1.0,0,1.0,0,1.0,0,1.0,0,1.0
652,'4',290.0,-45.474,132.675,-132.675,1.003,0,55.6,0.0,0.16,0.0,0.0,0.0,1,100.0,590.271,29.514,1,1.0,0,1.0,0,1.0,0,1.0,0,1.0
652,'5',0.0,0.0,134.048,-134.048,1.003,0,195.6,0.0,0.192,0.0,0.0,0.0,0,100.0,430.882,21.544,1,1.0,0,1.0,0,1.0,0,1.0,0,1.0
652,'6',21.61,-3.389,9.887,-9.887,1.003,0,195.6,0.0,0.192,0.0,0.0,0.0,1,100.0,31.779,3.0,1,1.0,0,1.0,0,1.0,0,1.0,0,1.0
664,'99',36.234,28.499,550.0,-550.0,1.0247,0,100.0,0.0,1.0,0.0,0.0,1.0,1,100.0,1500.0,11.604,1,1.0,0,1.0,0,1.0,0,1.0,0,1.0
669,'1',379.248,-240.733,286.784,-286.784,1.0,0,704.0,0.0091,0.26,0.0,0.0,0.0,1,100.0,921.838,3.0,1,1.0,0,1.0,0,1.0,0,1.0,0,1.0
682,'97',16.3,-3.66,3.66,-3.66,1.01,0,100.0,0.0,0.1,0.0,0.0,1.0,1,100.0,40.0,3.0,1,1.0,0,1.0,0,1.0,0,1.0,0,1.0
686,'1',0.0,0.0,364.605,-364.605,1.0124,0,841.0,0.0,0.25,0.0,0.0,0.0,0,100.0,1171.985,58.599,1,1.0,0,1.0,0,1.0,0,1.0,0,1.0
696,'99',69.593,-103.448,550.0,-550.0,1.0119,0,100.0,0.0,1.0,0.0,0.0,1.0,1,100.0,1500.0,22.288,1,1.0,0,1.0,0,1.0,0,1.0,0,1.0
698,'97',3.1,3.66,3.66,-3.66,1.01,0,100.0,0.0,0.1,0.0,0.0,1.0,1,100.0,40.0,3.0,1,1.0,0,1.0,0,1.0,0,1.0,0,1.0
702,'1',3.1,0.0,443.386,-443.386,1.0124,0,1043.0,0.0,0.23,0.0,0.0,0.0,0,100.0,1425.221,3.0,1,1.0,0,1.0,0,1.0,0,1.0,0,1.0
715,'1',0.0,0.0,129.015,-129.015,1.03,0,100.0,0.0,1.0,0.0,0.0,1.0,0,100.0,414.706,20.735,1,1.0,0,1.0,0,1.0,0,1.0,0,1.0
719,'1',3.1,0.0,30.744,-30.744,1.0186,0,47.62,0.0,0.258,0.0,0.175,1.0,0,100.0,98.824,3.0,1,1.0,0,1.0,0,1.0,0,1.0,0,1.0
722,'1',0.0,0.0,31.224,-31.224,1.015,0,100.0,0.0,1.0,0.0,0.0,1.0,0,100.0,100.368,5.018,1,1.0,0,1.0,0,1.0,0,1.0,0,1.0
728,'1',0.0,0.0,122.015,-122.015,1.0,0,194.91,0.0,0.225,0.0,0.0,1.0,0,100.0,392.206,19.61,1,1.0,0,1.0,0,1.0,0,1.0,0,1.0
730,'1',242.55,24.527,110.967,-110.967,1.0,0,194.45,0.0,0.225,0.0,0.0,1.0,1,100.0,419.637,20.982,1,1.0,0,1.0,0,1.0,0,1.0,0,1.0
732,'1',243.1,45.756,111.218,-111.218,1.0,0,196.98,0.0,0.225,0.0,0.0,1.0,1,100.0,494.81,3.0,1,1.0,0,1.0,0,1.0,0,1.0,0,1.0
735,'1',0.0,0.0,30.264,-30.264,1.03,0,100.0,0.0,1.0,0.0,0.0,1.0,0,100.0,97.279,4.864,1,1.0,0,1.0,0,1.0,0,1.0,0,1.0
739,'1',3.1,0.0,12.009,-12.009,1.0162,0,100.0,0.0,1.0,0.0,0.0,1.0,0,100.0,38.603,3.0,1,1.0,0,1.0,0,1.0,0,1.0,0,1.0
742,'2',0.0,0.0,48.037,-48.037,1.0042,0,120.0,0.0,0.1187,0.0,0.0,1.0,0,100.0,154.412,2.85,1,1.0,0,1.0,0,1.0,0,1.0,0,1.0
748,'1',0.0,0.0,122.015,-122.015,1.0,0,195.49,0.0,0.225,0.0,0.0,1.0,0,100.0,392.206,19.61,1,1.0,0,1.0,0,1.0,0,1.0,0,1.0
765,'1',0.0,0.0,41.793,-41.793,1.03,0,100.0,0.0,1.0,0.0,0.0,1.0,0,100.0,134.338,6.717,1,1.0,0,1.0,0,1.0,0,1.0,0,1.0
770,'2',3.1,0.0,17.808,-17.808,1.0,0,100.0,0.0,1.0,0.0,0.0,1.0,0,100.0,57.243,3.0,1,1.0,0,1.0,0,1.0,0,1.0,0,1.0
770,'3',3.1,0.0,15.172,-15.172,1.0,0,100.0,0.0,1.0,0.0,0.0,1.0,0,100.0,48.768,3.0,1,1.0,0,1.0,0,1.0,0,1.0,0,1.0
774,'99',33.574,-42.628,550.0,-550.0,1.0184,0,100.0,0.0,1.0,0.0,0.0,1.0,1,100.0,1500.0,10.752,1,1.0,0,1.0,0,1.0,0,1.0,0,1.0
775,'1',3.1,0.654,111.384,-111.384,1.0,0,194.87,0.0,0.2436,0.0,0.0,1.0,1,100.0,358.033,3.0,1,1.0,0,1.0,0,1.0,0,1.0,0,1.0
783,'1',242.738,24.547,111.052,-111.052,1.0,0,194.6,0.0,0.225,0.0,0.0,1.0,1,100.0,419.961,3.0,1,1.0,0,1.0,0,1.0,0,1.0,0,1.0
788,'99',4.35,-16.804,550.0,-550.0,1.0,0,100.0,0.0,1.0,0.0,0.0,1.0,1,100.0,1500.0,3.0,1,1.0,0,1.0,0,1.0,0,1.0,0,1.0
789,'99',3.1,-16.679,550.0,-550.0,1.0,0,100.0,0.0,1.0,0.0,0.0,1.0,1,100.0,1500.0,3.0,1,1.0,0,1.0,0,1.0,0,1.0,0,1.0
791,'1',242.738,13.263,111.052,-111.052,1.0,0,194.3,0.0,0.225,0.0,0.0,1.0,1,100.0,494.072,3.0,1,1.0,0,1.0,0,1.0,0,1.0,0,1.0
792,'99',1572.702,433.555,550.0,-550.0,1.0025,0,100.0,0.0,1.0,0.0,0.0,1.0,1,100.0,1740.687,87.034,1,1.0,0,1.0,0,1.0,0,1.0,0,1.0
800,'1',0.0,0.0,31.224,-31.224,1.0025,0,100.0,0.0,1.0,0.0,0.0,1.0,0,100.0,100.368,5.018,1,1.0,0,1.0,0,1.0,0,1.0,0,1.0
801,'1',100.0,-9.512,57.645,-57.645,1.0073,0,100.0,0.0,1.0,0.0,0.0,1.0,1,100.0,185.294,3.0,1,1.0,0,1.0,0,1.0,0,1.0,0,1.0
809,'99',138.223,-29.579,550.0,-550.0,1.0,0,100.0,0.0,1.0,0.0,0.0,1.0,1,100.0,1500.0,44.267,1,1.0,0,1.0,0,1.0,0,1.0,0,1.0
816,'1',0.0,0.0,127.643,-127.643,1.0054,0,128.0,0.0,0.17,0.0021,0.072,1.0,0,100.0,410.294,20.515,1,1.0,0,1.0,0,1.0,0,1.0,0,1.0
816,'2',107.1,-7.388,48.998,-48.998,1.0054,0,128.0,0.0,0.25,0.0021,0.072,1.0,1,100.0,217.993,3.8,1,1.0,0,1.0,0,1.0,0,1.0,0,1.0
816,'3',0.0,0.0,123.982,-123.982,1.0054,0,128.0,0.0,0.17,0.002,0.0725,1.0,0,100.0,398.529,19.926,1,1.0,0,1.0,0,1.0,0,1.0,0,1.0
816,'4',107.1,-7.388,48.998,-48.998,1.0054,0,128.0,0.0,0.25,0.002,0.0725,1.0,1,100.0,217.993,3.8,1,1.0,0,1.0,0,1.0,0,1.0,0,1.0
819,'1',0.0,0.0,638.226,-638.226,1.0263,0,100.0,0.0,1.0,0.0,0.0,1.0,0,100.0,2219.323,110.966,1,1.0,0,1.0,0,1.0,0,1.0,0,1.0
820,'1',195.85,8.854,112.476,-112.476,1.0,0,196.78,0.0,0.225,0.0,0.0,1.0,1,100.0,361.544,3.0,1,1.0,0,1.0,0,1.0,0,1.0,0,1.0
821,'1',0.0,0.0,111.132,-111.132,1.0,0,196.83,0.0,0.225,0.0,0.0,1.0,0,100.0,357.224,17.861,1,1.0,0,1.0,0,1.0,0,1.0,0,1.0
825,'1',266.7,27.215,122.015,-122.015,1.0,0,195.2,0.0,0.225,0.0,0.0,1.0,1,100.0,542.846,3.0,1,1.0,0,1.0,0,1.0,0,1.0,0,1.0
829,'1',75.0,6.263,118.492,-118.492,1.03,0,100.0,0.0,1.0,0.0,0.0,1.0,1,100.0,380.882,8.1,1,1.0,0,1.0,0,1.0,0,1.0,0,1.0
836,'1',0.0,0.0,116.663,-116.663,1.0041,0,100.0,0.0,1.0,0.0,0.0,1.0,0,100.0,375.0,18.75,1,1.0,0,1.0,0,1.0,0,1.0,0,1.0
839,'1',13.39,5.354,15.315,-15.315,1.0,0,100.0,0.0,1.0,0.0,0.0,1.0,1,100.0,49.228,3.0,1,1.0,0,1.0,0,1.0,0,1.0,0,1.0
839,'3',3.1,0.0,15.338,-15.338,1.0,0,100.0,0.0,1.0,0.0,0.0,1.0,0,100.0,49.301,3.0,1,1.0,0,1.0,0,1.0,0,1.0,0,1.0
840,'1',191.637,8.504,110.549,-110.549,1.0,0,193.42,0.0,0.2436,0.0,0.0,1.0,1,100.0,418.058,3.0,1,1.0,0,1.0,0,1.0,0,1.0,0,1.0
842,'1',106.05,-13.545,48.518,-48.518,1.03,0,100.0,0.0,1.0,0.0,0.0,1.0,1,100.0,215.856,3.0,1,1.0,0,1.0,0,1.0,0,1.0,0,1.0
850,'99',138.223,-29.579,550.0,-550.0,1.0,0,100.0,0.0,1.0,0.0,0.0,1.0,1,100.0,1500.0,44.267,1,1.0,0,1.0,0,1.0,0,1.0,0,1.0
859,'1',0.0,0.0,31.224,-31.224,1.0156,0,100.0,0.0,1.0,0.0,0.0,1.0,0,100.0,100.368,5.018,1,1.0,0,1.0,0,1.0,0,1.0,0,1.0
862,'1',244.2,24.703,111.721,-111.721,1.0,0,195.77,0.0,0.26,0.0,0.0,1.0,1,100.0,497.049,3.0,1,1.0,0,1.0,0,1.0,0,1.0,0,1.0
863,'1',3.1,0.0,15.652,-15.652,1.0,0,100.0,0.0,1.0,0.0,0.0,1.0,0,100.0,50.312,3.0,1,1.0,0,1.0,0,1.0,0,1.0,0,1.0
864,'3',3.1,0.0,15.269,-15.269,1.0,0,100.0,0.0,1.0,0.0,0.0,1.0,0,100.0,49.081,3.0,1,1.0,0,1.0,0,1.0,0,1.0,0,1.0
869,'1',234.15,26.26,107.124,-107.124,1.0141,0,100.0,0.0,1.0,0.0,0.0,1.0,1,100.0,476.593,7.6,1,1.0,0,1.0,0,1.0,0,1.0,0,1.0
873,'1',0.0,0.0,591.096,-591.096,1.01,0,716.2,0.0,0.215,0.0,0.0,1.0,0,100.0,1900.019,524.545,1,1.0,0,1.0,0,1.0,0,1.0,0,1.0
880,'1',195.944,-29.997,133.59,-133.59,1.0,0,100.0,0.0,1.0,0.0,0.0,1.0,1,100.0,429.412,3.42,1,1.0,0,1.0,0,1.0,0,1.0,0,1.0
906,'1',0.0,0.0,305.038,-305.038,1.018,0,716.2,0.0,0.215,0.0,0.0,1.0,0,100.0,980.515,209.0,1,1.0,0,1.0,0,1.0,0,1.0,0,1.0
926,'99',997.579,194.808,550.0,-550.0,1.0378,0,100.0,0.0,1.0,0.0,0.0,1.0,1,100.0,1500.0,75.0,1,1.0,0,1.0,0,1.0,0,1.0,0,1.0
938,'1',0.0,0.0,14.411,-14.411,1.04,0,37.5,0.0,0.154,0.0,0.0,1.0,0,100.0,46.324,17.033,1,1.0,0,1.0,0,1.0,0,1.0,0,1.0
938,'2',0.0,0.0,14.411,-14.411,1.04,0,37.5,0.0,0.171,0.0,0.0,1.0,0,100.0,46.324,16.7,1,1.0,0,1.0,0,1.0,0,1.0,0,1.0
938,'6',0.0,0.0,14.411,-14.411,1.04,0,36.0,0.0,0.194,0.0,0.0,1.0,0,100.0,46.324,8.633,1,1.0,0,1.0,0,1.0,0,1.0,0,1.0
961,'99',100.777,-28.334,550.0,-550.0,1.0134,0,100.0,0.0,1.0,0.0,0.0,1.0,1,100.0,1500.0,32.275,1,1.0,0,1.0,0,1.0,0,1.0,0,1.0
965,'99',215.988,-3.505,550.0,-550.0,1.0217,0,100.0,0.0,1.0,0.0,0.0,1.0,1,100.0,1500.0,75.0,1,1.0,0,1.0,0,1.0,0,1.0,0,1.0
987,'1',63.48,-21.532,23.779,-23.779,1.01,0,60.0,0.0,0.17,0.0,0.0,1.0,1,100.0,105.791,6.65,1,1.0,0,1.0,0,1.0,0,1.0,0,1.0
992,'1',0.0,0.0,31.032,-31.032,1.0,0,64.1,0.0,0.31,0.0014,0.0937,1.0,0,100.0,99.75,4.988,1,1.0,0,1.0,0,1.0,0,1.0,0,1.0
992,'8',0.0,0.0,128.1,-128.1,1.0,0,1.5,0.0,0.233,0.0,0.0,1.0,0,100.0,411.765,20.588,1,1.0,0,1.0,0,1.0,0,1.0,0,1.0
992,'9',0.0,0.0,116.663,-116.663,1.0,0,100.0,0.0,1.0,0.0,0.0,1.0,0,100.0,375.0,18.75,1,1.0,0,1.0,0,1.0,0,1.0,0,1.0
992,'A',284.0,-11.594,129.93,-129.93,1.0,0,13.0,0.0,0.26,0.0003,0.02,1.0,1,100.0,578.058,1.9,1,1.0,0,1.0,0,1.0,0,1.0,0,1.0
996,'99',32.074,184.373,550.0,-550.0,1.013,0,100.0,0.0,1.0,0.0,0.0,1.0,1,100.0,1500.0,10.272,1,1.0,0,1.0,0,1.0,0,1.0,0,1.0
1007,'PS',0.0,0.0,0.091,-0.091,1.0,0,100.0,0.0,1.0,0.0,0.0,1.0,0,100.0,0.294,0.1,304,1.0,0,1.0,0,1.0,0,1.0,0,1.0
1048,'1',0.0,0.0,114.375,-114.375,1.0,0,100.0,0.0,1.0,0.0,0.0,1.0,0,100.0,367.647,1.267,1,1.0,0,1.0,0,1.0,0,1.0,0,1.0
1056,'1',220.708,2.41,81.664,-81.664,1.0,0,246.0,0.0,0.222,0.0,0.0,1.0,1,100.0,363.322,57.0,1,1.0,0,1.0,0,1.0,0,1.0,0,1.0
1061,'99',105.752,-52.392,550.0,-550.0,1.0,0,100.0,0.0,1.0,0.0,0.0,1.0,1,100.0,1500.0,33.868,1,1.0,0,1.0,0,1.0,0,1.0,0,1.0
1065,'PS',0.0,0.0,0.091,-0.091,1.0,0,100.0,0.0,1.0,0.0,0.0,1.0,0,100.0,0.294,0.1,304,1.0,0,1.0,0,1.0,0,1.0,0,1.0
1077,'99',28.675,-182.566,550.0,-550.0,1.0043,0,100.0,0.0,1.0,0.0,0.0,1.0,1,100.0,1500.0,9.184,1,1.0,0,1.0,0,1.0,0,1.0,0,1.0
1086,'PS',0.0,0.0,0.091,-0.091,1.0,0,100.0,0.0,1.0,0.0,0.0,1.0,0,100.0,0.294,0.1,304,1.0,0,1.0,0,1.0,0,1.0,0,1.0
1092,'1',0.0,0.0,126.27,-126.27,1.02,0,225.0,0.0,0.202,0.0,0.0,1.0,0,100.0,405.882,3.6,1,1.0,0,1.0,0,1.0,0,1.0,0,1.0
1092,'2',0.0,0.0,59.534,-59.534,1.02,0,154.0,0.0,0.229,0.0,0.0,1.0,0,100.0,191.368,50.18,1,1.0,0,1.0,0,1.0,0,1.0,0,1.0
1139,'99',97.807,-11.314,550.0,-550.0,1.0,0,100.0,0.0,1.0,0.0,0.0,1.0,1,100.0,1500.0,31.324,1,1.0,0,1.0,0,1.0,0,1.0,0,1.0
1140,'99',49.764,16.68,550.0,-550.0,1.0,0,100.0,0.0,1.0,0.0,0.0,1.0,1,100.0,1500.0,15.937,1,1.0,0,1.0,0,1.0,0,1.0,0,1.0
1142,'1',0.0,0.0,122.068,-122.068,1.01,0,100.0,0.0,1.0,0.0,0.0,1.0,0,100.0,392.376,19.619,1,1.0,0,1.0,0,1.0,0,1.0,0,1.0
1143,'1',266.816,42.789,122.068,-122.068,1.01,0,100.0,0.0,1.0,0.0,0.0,1.0,1,100.0,543.082,3.0,1,1.0,0,1.0,0,1.0,0,1.0,0,1.0
1144,'1',25.0,34.957,122.068,-122.068,1.01,0,100.0,0.0,1.0,0.0,0.0,1.0,1,100.0,392.376,3.0,1,1.0,0,1.0,0,1.0,0,1.0,0,1.0
1145,'1',266.808,42.698,122.065,-122.065,1.01,0,100.0,0.0,1.0,0.0,0.0,1.0,1,100.0,543.065,3.0,1,1.0,0,1.0,0,1.0,0,1.0,0,1.0
1146,'99',227.687,-10.345,550.0,-550.0,1.0,0,100.0,0.0,1.0,0.0,0.0,1.0,1,100.0,1500.0,55.513,1,1.0,0,1.0,0,1.0,0,1.0,0,1.0
1173,'1',15.325,-3.947,7.411,-7.411,1.0,0,100.0,0.0,1.0,0.0,0.0,1.0,1,100.0,32.974,3.0,1,1.0,0,1.0,0,1.0,0,1.0,0,1.0
1175,'1',3.1,0.0,11.58,-11.58,1.01,0,100.0,0.0,1.0,0.0,0.0,1.0,0,100.0,37.224,3.0,1,1.0,0,1.0,0,1.0,0,1.0,0,1.0
1181,'1',30.0,-3.43,13.725,-13.725,1.01,0,100.0,0.0,1.0,0.0,0.0,1.0,1,100.0,61.062,3.053,1,1.0,0,1.0,0,1.0,0,1.0,0,1.0
1183,'1',3.1,0.0,13.725,-13.725,1.01,0,100.0,0.0,1.0,0.0,0.0,1.0,0,100.0,44.118,3.0,1,1.0,0,1.0,0,1.0,0,1.0,0,1.0
1185,'1',0.0,0.0,21.445,-21.445,1.01,0,100.0,0.0,1.0,0.0,0.0,1.0,0,100.0,68.934,3.447,1,1.0,0,1.0,0,1.0,0,1.0,0,1.0
1187,'1',0.0,0.0,21.445,-21.445,1.01,0,100.0,0.0,1.0,0.0,0.0,1.0,0,100.0,68.934,3.447,1,1.0,0,1.0,0,1.0,0,1.0,0,1.0
...
0 / END OF GENERATOR DATA BEGIN BRANCH DATA
1,31,'1',0.0013,0.0099,0.02132,260.0,312.0,390.0,0.0,0.0,0.0,0.0,1,2,0.0,1,1.0,0,1.0,0,1.0,0,1.0
3,7,'1',0.07479,0.29968,0.0,260.0,312.0,390.0,0.0,0.0,0.0,0.0,1,1,0.0,1,1.0,0,1.0,0,1.0,0,1.0
3,10,'1',1.0352,0.9,0.0,260.0,312.0,390.0,0.0,0.0,0.0,0.0,1,2,0.0,1,1.0,0,1.0,0,1.0,0,1.0
3,28,'1',0.03978,0.26486,0.0,260.0,312.0,390.0,0.0,0.0,0.0,0.0,1,2,0.0,1,1.0,0,1.0,0,1.0,0,1.0
3,29,'1',1.0789,0.9,0.0,260.0,312.0,390.0,0.0,0.0,0.0,0.0,1,2,0.0,1,1.0,0,1.0,0,1.0,0,1.0
3,33,'1',0.13857,0.28969,0.0,260.0,312.0,390.0,0.0,0.0,0.0,0.0,1,1,0.0,1,1.0,0,1.0,0,1.0,0,1.0
3,44,'1',0.07496,0.30013,0.0,260.0,312.0,390.0,0.0,0.0,0.0,0.0,1,1,0.0,1,1.0,0,1.0,0,1.0,0,1.0
4,9,'1',0.39394,0.9,0.0,260.0,312.0,390.0,0.0,0.0,0.0,0.0,1,1,0.0,1,1.0,0,1.0,0,1.0,0,1.0
4,15,'1',0.0111,0.16469,0.0,260.0,312.0,390.0,0.0,0.0,0.0,0.0,1,1,0.0,1,1.0,0,1.0,0,1.0,0,1.0
4,33,'1',0.05555,0.36498,0.0,260.0,312.0,390.0,0.0,0.0,0.0,0.0,1,1,0.0,1,1.0,0,1.0,0,1.0,0,1.0
5,9,'1',0.29041,0.5542,0.0,260.0,312.0,390.0,0.0,0.0,0.0,0.0,1,1,0.0,1,1.0,0,1.0,0,1.0,0,1.0
5,47,'1',0.15248,0.33587,0.0,260.0,312.0,390.0,0.0,0.0,0.0,0.0,1,1,0.0,1,1.0,0,1.0,0,1.0,0,1.0
6,16,'1',0.0042,0.0253,0.0485,260.0,312.0,390.0,0.0,0.0,0.0,0.0,1,1,0.0,1,1.0,0,1.0,0,1.0,0,1.0
6,54,'1',0.0046,0.0315,0.059,420.23,504.27,630.34,0.0,0.0,0.0,0.0,1,2,0.0,1,1.0,0,1.0,0,1.0,0,1.0
7,28,'1',-0.0656,0.84873,0.0,260.0,312.0,390.0,0.0,0.0,0.0,0.0,1,2,0.0,1,1.0,0,1.0,0,1.0,0,1.0
7,33,'1',0.15749,0.77703,0.0,260.0,312.0,390.0,0.0,0.0,0.0,0.0,1,1,0.0,1,1.0,0,1.0,0,1.0,0,1.0
7,44,'1',0.0162,0.1815,0.0,260.0,312.0,390.0,0.0,0.0,0.0,0.0,1,1,0.0,1,1.0,0,1.0,0,1.0,0,1.0
8,10,'1',-0.0598,0.2664,0.0,260.0,312.0,390.0,0.0,0.0,0.0,0.0,1,2,0.0,1,1.0,0,1.0,0,1.0,0,1.0
8,29,'1',-0.0578,0.27321,0.0,260.0,312.0,390.0,0.0,0.0,0.0,0.0,1,2,0.0,1,1.0,0,1.0,0,1.0,0,1.0
8,34,'1',0.01979,0.0496,0.0,260.0,312.0,390.0,0.0,0.0,0.0,0.0,1,2,0.0,1,1.0,0,1.0,0,1.0,0,1.0
9,10,'1',0.46671,0.9,0.0,260.0,312.0,390.0,0.0,0.0,0.0,0.0,1,2,0.0,1,1.0,0,1.0,0,1.0,0,1.0
9,15,'1',0.39058,0.9,0.0,260.0,312.0,390.0,0.0,0.0,0.0,0.0,1,2,0.0,1,1.0,0,1.0,0,1.0,0,1.0
9,29,'1',0.50043,0.9,0.0,260.0,312.0,390.0,0.0,0.0,0.0,0.0,1,2,0.0,1,1.0,0,1.0,0,1.0,0,1.0
9,33,'1',0.98041,0.9,0.0,260.0,312.0,390.0,0.0,0.0,0.0,0.0,1,1,0.0,1,1.0,0,1.0,0,1.0,0,1.0
9,34,'1',0.54064,0.64634,0.0,260.0,312.0,390.0,0.0,0.0,0.0,0.0,1,2,0.0,1,1.0,0,1.0,0,1.0,0,1.0
9,47,'1',0.14495,0.27334,0.0,260.0,312.0,390.0,0.0,0.0,0.0,0.0,1,1,0.0,1,1.0,0,1.0,0,1.0,0,1.0
10,28,'1',0.48924,0.9,0.0,260.0,312.0,390.0,0.0,0.0,0.0,0.0,1,1,0.0,1,1.0,0,1.0,0,1.0,0,1.0
10,29,'1',0.0009,0.0003,0.0,260.0,312.0,390.0,0.0,0.0,0.0,0.0,1,2,0.0,1,1.0,0,1.0,0,1.0,0,1.0
10,33,'1',0.95414,0.9,0.0,260.0,312.0,390.0,0.0,0.0,0.0,0.0,1,1,0.0,1,1.0,0,1.0,0,1.0,0,1.0
10,34,'1',0.01526,0.02962,0.0,260.0,312.0,390.0,0.0,0.0,0.0,0.0,1,1,0.0,1,1.0,0,1.0,0,1.0,0,1.0
11,47,'1',0.16551,0.4737,0.0,260.0,312.0,390.0,0.0,0.0,0.0,0.0,1,1,0.0,1,1.0,0,1.0,0,1.0,0,1.0
11,49,'1',0.04304,0.18584,0.0,260.0,312.0,390.0,0.0,0.0,0.0,0.0,1,1,0.0,1,1.0,0,1.0,0,1.0,0,1.0
12,18,'1',0.0136,0.0903,0.1732,260.0,312.0,390.0,0.0,0.0,0.0,0.0,1,1,0.0,1,1.0,0,1.0,0,1.0,0,1.0
12,961,'TL',0.0001,0.01,0.0,122.07,146.49,183.11,0.0,0.0,0.0,0.0,1,1,0.0,8,1.0,0,1.0,0,1.0,0,1.0
13,22,'1',0.0154,0.0991,0.17817,591.0,709.2,886.5,0.0,0.0,0.0,0.0,1,1,0.0,1,1.0,0,1.0,0,1.0,0,1.0
13,31,'1',0.0122,0.0943,0.18743,260.0,312.0,390.0,0.0,0.0,0.0,0.0,1,2,0.0,1,1.0,0,1.0,0,1.0,0,1.0
13,39,'1',0.0065,0.0503,0.10008,260.0,312.0,390.0,0.0,0.0,0.0,0.0,1,1,0.0,1,1.0,0,1.0,0,1.0,0,1.0
13,40,'1',0.0022,0.0262,0.05566,712.6,855.12,1068.9,0.0,0.0,0.0,0.0,1,1,0.0,1,1.0,0,1.0,0,1.0,0,1.0
13,40,'2',0.0027,0.0268,0.05696,707.9,849.48,1061.85,0.0,0.0,0.0,0.0,1,1,0.0,1,1.0,0,1.0,0,1.0,0,1.0
15,33,'1',0.05509,0.36182,0.0,260.0,312.0,390.0,0.0,0.0,0.0,0.0,1,1,0.0,1,1.0,0,1.0,0,1.0,0,1.0
16,1077,'TL',0.0001,0.01,0.0,222.0,244.2,266.4,0.0,0.0,0.0,0.0,1,1,0.0,9,1.0,0,1.0,0,1.0,0,1.0
17,43,'1',0.0123,0.0822,0.15137,357.0,392.7,428.4,0.0,0.0,0.0,0.0,1,2,0.0,1,1.0,0,1.0,0,1.0,0,1.0
17,52,'1',0.0057,0.0382,0.07047,260.0,312.0,390.0,0.0,0.0,0.0,0.0,1,2,0.0,1,1.0,0,1.0,0,1.0,0,1.0
18,35,'1',0.00605,0.03642,0.06956,260.0,312.0,390.0,0.0,0.0,0.0,0.0,1,2,0.0,1,1.0,0,1.0,0,1.0,0,1.0
18,52,'1',0.00203,0.01191,0.02399,260.0,312.0,390.0,0.0,0.0,0.0,0.0,1,2,0.0,1,1.0,0,1.0,0,1.0,0,1.0
19,53,'1',0.00116,0.0314,2.6586,758.15,909.78,1137.22,0.0,0.0,0.0,0.0,1,2,0.0,1,1.0,0,1.0,0,1.0,0,1.0
22,45,'1',0.0106,0.0684,0.13505,260.0,312.0,390.0,0.0,0.0,0.0,0.0,1,2,0.0,1,1.0,0,1.0,0,1.0,0,1.0
22,48,'1',0.0112,0.0727,0.14343,260.0,312.0,390.0,0.0,0.0,0.0,0.0,1,1,0.0,1,1.0,0,1.0,0,1.0,0,1.0
22,50,'1',0.00197,0.01283,0.02477,260.0,312.0,390.0,0.0,0.0,0.0,0.0,1,2,0.0,1,1.0,0,1.0,0,1.0,0,1.0
23,632,'TL',0.0001,0.01,0.0,505.0,555.5,606.0,0.0,0.0,0.0,0.0,1,2,0.0,84,1.0,0,1.0,0,1.0,0,1.0
24,36,'1',0.0045,0.0221,0.00642,260.0,312.0,390.0,0.0,0.0,0.0,0.0,1,1,0.0,1,1.0,0,1.0,0,1.0,0,1.0
26,45,'1',0.0034,0.0221,0.04362,260.0,312.0,390.0,0.0,0.0,0.0,0.0,1,2,0.0,1,1.0,0,1.0,0,1.0,0,1.0
27,49,'1',0.04064,0.1642,0.0,260.0,312.0,390.0,0.0,0.0,0.0,0.0,1,1,0.0,1,1.0,0,1.0,0,1.0,0,1.0
27,666,'TL',0.0001,0.01,0.0,154.56,185.47,231.84,0.0,0.0,0.0,0.0,1,2,0.0,82,1.0,0,1.0,0,1.0,0,1.0
28,29,'1',0.523,0.9,0.0,260.0,312.0,390.0,0.0,0.0,0.0,0.0,1,2,0.0,1,1.0,0,1.0,0,1.0,0,1.0
28,33,'1',0.03257,0.26394,0.0,260.0,312.0,390.0,0.0,0.0,0.0,0.0,1,1,0.0,1,1.0,0,1.0,0,1.0,0,1.0
28,44,'1',-0.0656,0.85005,0.0,260.0,312.0,390.0,0.0,0.0,0.0,0.0,1,1,0.0,1,1.0,0,1.0,0,1.0,0,1.0
29,34,'1',0.01598,0.03011,0.0,260.0,312.0,390.0,0.0,0.0,0.0,0.0,1,1,0.0,1,1.0,0,1.0,0,1.0,0,1.0
30,32,'1',0.01265,0.06079,0.0289,260.0,312.0,390.0,0.0,0.0,0.0,0.0,1,1,0.0,1,1.0,0,1.0,0,1.0,0,1.0
30,41,'1',0.0239,0.1186,0.06562,260.0,312.0,390.0,0.0,0.0,0.0,0.0,1,1,0.0,1,1.0,0,1.0,0,1.0,0,1.0
31,43,'1',0.0001,0.001,0.00208,260.0,312.0,390.0,0.0,0.0,0.0,0.0,1,1,0.0,1,1.0,0,1.0,0,1.0,0,1.0
32,609,'TL',0.0001,0.01,0.0,193.83,232.59,290.74,0.0,0.0,0.0,0.0,1,1,0.0,81,1.0,0,1.0,0,1.0,0,1.0
33,44,'1',0.15786,0.7782,0.0,260.0,312.0,390.0,0.0,0.0,0.0,0.0,1,2,0.0,1,1.0,0,1.0,0,1.0,0,1.0
35,42,'1',0.00421,0.0253,0.04874,260.0,312.0,390.0,0.0,0.0,0.0,0.0,1,2,0.0,1,1.0,0,1.0,0,1.0,0,1.0
37,38,'1',0.0044,0.034,0.06751,260.0,312.0,390.0,0.0,0.0,0.0,0.0,1,1,0.0,1,1.0,0,1.0,0,1.0,0,1.0
37,39,'1',0.0049,0.0375,0.07449,429.88,515.85,644.82,0.0,0.0,0.0,0.0,1,2,0.0,1,1.0,0,1.0,0,1.0,0,1.0
38,40,'1',0.0048,0.0569,0.12161,260.0,312.0,390.0,0.0,0.0,0.0,0.0,1,2,0.0,1,1.0,0,1.0,0,1.0,0,1.0
39,43,'1',0.0091,0.0698,0.13869,453.0,498.3,543.6,0.0,0.0,0.0,0.0,1,2,0.0,1,1.0,0,1.0,0,1.0,0,1.0
42,975,'TL',0.0001,0.01,0.0,137.0,150.7,164.4,0.0,0.0,0.0,0.0,1,2,0.0,10,1.0,0,1.0,0,1.0,0,1.0
46,678,'TL',0.0001,0.01,0.0,172.0,189.2,206.4,0.0,0.0,0.0,0.0,1,2,0.0,83,1.0,0,1.0,0,1.0,0,1.0
50,54,'1',0.01244,0.081,0.1561,260.0,312.0,390.0,0.0,0.0,0.0,0.0,1,2,0.0,1,1.0,0,1.0,0,1.0,0,1.0
51,204,'TL',0.0001,0.01,0.0,83.7,98.6,125.55,0.0,0.0,0.0,0.0,1,2,0.0,3,1.0,0,1.0,0,1.0,0,1.0
56,58,'1',0.00033,0.00185,0.00134,154.0,182.0,182.0,0.0,0.0,0.0,0.0,1,2,0.0,1,1.0,0,1.0,0,1.0,0,1.0
56,63,'1',0.00351,0.01972,0.0013,154.0,182.0,182.0,0.0,0.0,0.0,0.0,1,1,0.0,1,1.0,0,1.0,0,1.0,0,1.0
58,67,'1',0.00251,0.00782,0.0022,154.0,182.0,182.0,0.0,0.0,0.0,0.0,1,1,0.0,1,1.0,0,1.0,0,1.0,0,1.0
59,62,'1',0.004,0.0117,0.0013,139.0,163.0,163.0,0.0,0.0,0.0,0.0,1,2,0.0,1,1.0,0,1.0,0,1.0,0,1.0
59,225,'TL',0.0001,0.01,0.0,83.7,98.6,125.55,0.0,0.0,0.0,0.0,1,1,0.0,1,1.0,0,1.0,0,1.0,0,1.0
62,64,'1',0.0046,0.01505,0.00188,83.0,83.0,83.0,0.0,0.0,0.0,0.0,1,2,0.0,1,1.0,0,1.0,0,1.0,0,1.0
62,69,'1',0.0252,0.0825,0.0103,142.0,167.0,167.0,0.0,0.0,0.0,0.0,1,1,0.0,1,1.0,0,1.0,0,1.0,0,1.0
66,67,'1',0.0087,0.02647,0.00222,144.0,169.0,169.0,0.0,0.0,0.0,0.0,1,2,0.0,1,1.0,0,1.0,0,1.0,0,1.0
66,69,'1',0.0262,0.0857,0.0107,142.0,176.0,176.0,0.0,0.0,0.0,0.0,1,2,0.0,1,1.0,0,1.0,0,1.0,0,1.0
66,241,'TL',0.0001,0.01,0.0,83.7,98.6,125.55,0.0,0.0,0.0,0.0,1,2,0.0,2,1.0,0,1.0,0,1.0,0,1.0
72,95,'1',0.0016,0.0179,0.29195,749.15,898.98,1123.72,0.0,0.0,0.0,0.0,1,2,0.0,1,1.0,0,1.0,0,1.0,0,1.0
72,127,'1',0.0011,0.0122,0.2654,654.13,784.95,981.19,0.0,0.0,0.0,0.0,1,2,0.0,1,1.0,0,1.0,0,1.0,0,1.0
74,103,'1',0.0024,0.0113,0.00294,260.0,312.0,390.0,0.0,0.0,0.0,0.0,1,2,0.0,1,1.0,0,1.0,0,1.0,0,1.0
74,103,'2',-0.0148,0.50095,0.0,260.0,312.0,390.0,0.0,0.0,0.0,0.0,1,2,0.0,1,1.0,0,1.0,0,1.0,0,1.0
74,133,'1',0.0189,0.0877,0.02284,260.0,312.0,390.0,0.0,0.0,0.0,0.0,1,2,0.0,1,1.0,0,1.0,0,1.0,0,1.0
74,146,'1',0.018,0.1264,0.04014,260.0,312.0,390.0,0.0,0.0,0.0,0.0,1,2,0.0,1,1.0,0,1.0,0,1.0,0,1.0
75,87,'1',0.0018,0.0232,0.4064,685.32,822.38,1027.98,0.0,0.0,0.0,0.0,1,1,0.0,1,1.0,0,1.0,0,1.0,0,1.0
75,143,'1',0.0013,0.0192,0.335,2010.0,2211.0,2412.0,0.0,0.0,0.0,0.0,1,2,0.0,1,1.0,0,1.0,0,1.0,0,1.0
76,88,'1',0.0014,0.0157,0.29997,260.0,312.0,390.0,0.0,0.0,0.0,0.0,1,2,0.0,1,1.0,0,1.0,0,1.0,0,1.0
77,98,'1',0.0201,0.0815,0.02096,260.0,312.0,390.0,0.0,0.0,0.0,0.0,1,2,0.0,1,1.0,0,1.0,0,1.0,0,1.0
77,122,'1',0.0035,0.0178,0.0,260.0,312.0,390.0,0.0,0.0,0.0,0.0,1,1,0.0,1,1.0,0,1.0,0,1.0,0,1.0
77,122,'2',0.0229,0.41771,0.0,260.0,312.0,390.0,0.0,0.0,0.0,0.0,1,1,0.0,1,1.0,0,1.0,0,1.0,0,1.0
78,128,'1',0.01346,0.05014,0.0125,260.0,312.0,390.0,0.0,0.0,0.0,0.0,1,1,0.0,1,1.0,0,1.0,0,1.0,0,1.0
78,2440,'TL',0.0001,0.01,0.0,228.0,250.8,273.6,0.0,0.0,0.0,0.0,1,2,0.0,78,1.0,0,1.0,0,1.0,0,1.0
79,124,'1',0.0001,0.001,0.0,260.0,312.0,390.0,0.0,0.0,0.0,0.0,1,2,0.0,1,1.0,0,1.0,0,1.0,0,1.0
81,85,'1',0.031,0.1441,0.0334,260.0,312.0,390.0,0.0,0.0,0.0,0.0,1,1,0.0,1,1.0,0,1.0,0,1.0,0,1.0
81,103,'1',0.0085,0.0394,0.01026,260.0,312.0,390.0,0.0,0.0,0.0,0.0,1,1,0.0,1,1.0,0,1.0,0,1.0,0,1.0
81,147,'1',0.0404,0.1952,0.04559,260.0,312.0,390.0,0.0,0.0,0.0,0.0,1,1,0.0,1,1.0,0,1.0,0,1.0,0,1.0
83,104,'1',0.00065,0.00725,0.138,565.76,678.91,848.64,0.0,0.0,0.0,0.0,1,1,0.0,1,1.0,0,1.0,0,1.0,0,1.0
83,108,'1',0.00065,0.00725,0.138,574.22,689.07,861.33,0.0,0.0,0.0,0.0,1,1,0.0,1,1.0,0,1.0,0,1.0,0,1.0
84,93,'1',0.00224,0.02578,0.26437,1046.0,1466.0,1466.0,0.0,0.0,0.0,0.0,1,1,0.0,1,1.0,0,1.0,0,1.0,0,1.0
84,142,'1',0.00067,0.00772,0.07922,1046.0,1466.0,1466.0,0.0,0.0,0.0,0.0,1,1,0.0,1,1.0,0,1.0,0,1.0,0,1.0
85,90,'1',0.0131,0.0609,0.01586,260.0,312.0,390.0,0.0,0.0,0.0,0.0,1,1,0.0,1,1.0,0,1.0,0,1.0,0,1.0
85,94,'1',0.0056,0.0418,0.01167,260.0,312.0,390.0,0.0,0.0,0.0,0.0,1,2,0.0,1,1.0,0,1.0,0,1.0,0,1.0
85,150,'1',0.0131,0.0609,0.01586,260.0,312.0,390.0,0.0,0.0,0.0,0.0,1,1,0.0,1,1.0,0,1.0,0,1.0,0,1.0
86,94,'1',0.0052,0.0393,0.01144,260.0,312.0,390.0,0.0,0.0,0.0,0.0,1,2,0.0,1,1.0,0,1.0,0,1.0,0,1.0
86,148,'1',0.0027,0.0198,0.0063,260.0,312.0,390.0,0.0,0.0,0.0,0.0,1,2,0.0,1,1.0,0,1.0,0,1.0,0,1.0
88,89,'1',0.0024,0.026,0.43493,260.0,312.0,390.0,0.0,0.0,0.0,0.0,1,2,0.0,1,1.0,0,1.0,0,1.0,0,1.0
88,143,'1',0.0016,0.0182,0.3036,566.0,622.6,679.2,0.0,0.0,0.0,0.0,1,1,0.0,1,1.0,0,1.0,0,1.0,0,1.0
91,139,'1',0.0043,0.0196,0.0051,260.0,312.0,390.0,0.0,0.0,0.0,0.0,1,1,0.0,1,1.0,0,1.0,0,1.0,0,1.0
91,150,'1',0.01,0.0462,0.01204,260.0,312.0,390.0,0.0,0.0,0.0,0.0,1,2,0.0,1,1.0,0,1.0,0,1.0,0,1.0
92,110,'1',0.0001,0.001,0.0,260.0,312.0,390.0,0.0,0.0,0.0,0.0,1,2,0.0,1,1.0,0,1.0,0,1.0,0,1.0
92,133,'1',0.006,0.0478,0.01272,260.0,312.0,390.0,0.0,0.0,0.0,0.0,1,2,0.0,1,1.0,0,1.0,0,1.0,0,1.0
92,2634,'TL',0.0001,0.01,0.0,83.7,98.6,125.55,0.0,0.0,0.0,0.0,1,1,0.0,76,1.0,0,1.0,0,1.0,0,1.0
93,113,'1',0.00258,0.029,0.2982,1046.0,1361.0,1361.0,0.0,0.0,0.0,0.0,1,2,0.0,1,1.0,0,1.0,0,1.0,0,1.0
93,127,'1',0.0007,0.0074,0.07651,1568.0,1760.0,1760.0,0.0,0.0,0.0,0.0,1,1,0.0,1,1.0,0,1.0,0,1.0,0,1.0
95,137,'1',0.0009,0.01,0.19176,964.64,1157.56,1446.96,0.0,0.0,0.0,0.0,1,2,0.0,1,1.0,0,1.0,0,1.0,0,1.0
...